/*---------------------------------------------------------------------------*\
  =========                 |
  \\      /  F ield         | OpenFOAM: The Open Source CFD Toolbox
   \\    /   O peration     | Website:  https://openfoam.org
    \\  /    A nd           | Version:  9
     \\/     M anipulation  |
\*---------------------------------------------------------------------------*/
Build  : 9-710dba47639b
Exec   : scalarTransportFoam
Date   : May 10 2024
Time   : 14:40:53
Host   : "dyfluid-virtual-machine"
PID    : 963402
I/O    : uncollated
Case   : /home/dyfluid/case/one-muti
nProcs : 1
sigFpe : Enabling floating point exception trapping (FOAM_SIGFPE).
fileModificationChecking : Monitoring run-time modified files using timeStampMaster (fileModificationSkew 10)
allowSystemOperations : Allowing user-supplied system call operations

// * * * * * * * * * * * * * * * * * * * * * * * * * * * * * * * * * * * * * //
Create time

Create mesh for time = 0


SIMPLE: No convergence criteria found

Reading field T

Reading field U

Reading transportProperties

Reading diffusivity DT

Reading/calculating face flux field phi

No fvModels present
No fvConstraints present

Calculating scalar transport

Courant Number mean: 0.6 max: 0.6
Time = 0.005

DILUPBiCG:  Solving for T, Initial residual = 1, Final residual = 1.6359946e-07, No Iterations 4
DILUPBiCG:  Solving for T, Initial residual = 0.067404684, Final residual = 1.7521717e-11, No Iterations 2
Time = 0.01

DILUPBiCG:  Solving for T, Initial residual = 0.19885785, Final residual = 1.5856822e-07, No Iterations 2
DILUPBiCG:  Solving for T, Initial residual = 0.05850869, Final residual = 1.2536246e-07, No Iterations 4
Time = 0.015

DILUPBiCG:  Solving for T, Initial residual = 0.11432253, Final residual = 3.4047367e-07, No Iterations 3
DILUPBiCG:  Solving for T, Initial residual = 0.035596951, Final residual = 9.5025539e-08, No Iterations 3
Time = 0.02

DILUPBiCG:  Solving for T, Initial residual = 0.078829474, Final residual = 2.4917323e-07, No Iterations 3
DILUPBiCG:  Solving for T, Initial residual = 0.014719603, Final residual = 1.5795789e-07, No Iterations 3
Time = 0.025

DILUPBiCG:  Solving for T, Initial residual = 0.060679243, Final residual = 2.4534312e-07, No Iterations 3
DILUPBiCG:  Solving for T, Initial residual = 0.014855015, Final residual = 4.1557497e-08, No Iterations 3
Time = 0.03

DILUPBiCG:  Solving for T, Initial residual = 0.049222863, Final residual = 1.7598369e-07, No Iterations 3
DILUPBiCG:  Solving for T, Initial residual = 0.015118088, Final residual = 7.8057396e-08, No Iterations 3
Time = 0.035

DILUPBiCG:  Solving for T, Initial residual = 0.041834958, Final residual = 3.5736846e-07, No Iterations 3
DILUPBiCG:  Solving for T, Initial residual = 0.0095032826, Final residual = 4.9853019e-08, No Iterations 3
Time = 0.04

DILUPBiCG:  Solving for T, Initial residual = 0.036252164, Final residual = 2.3695044e-07, No Iterations 3
DILUPBiCG:  Solving for T, Initial residual = 0.0060691088, Final residual = 6.4075497e-08, No Iterations 3
Time = 0.045

DILUPBiCG:  Solving for T, Initial residual = 0.032100286, Final residual = 5.7454025e-09, No Iterations 4
DILUPBiCG:  Solving for T, Initial residual = 0.0042266735, Final residual = 5.4040841e-08, No Iterations 3
Time = 0.05

DILUPBiCG:  Solving for T, Initial residual = 0.028901634, Final residual = 4.2366238e-07, No Iterations 3
DILUPBiCG:  Solving for T, Initial residual = 0.0041893965, Final residual = 3.0270145e-07, No Iterations 3
Time = 0.055

DILUPBiCG:  Solving for T, Initial residual = 0.026386936, Final residual = 2.2442427e-07, No Iterations 3
DILUPBiCG:  Solving for T, Initial residual = 0.0053253224, Final residual = 1.8050486e-09, No Iterations 4
Time = 0.06

DILUPBiCG:  Solving for T, Initial residual = 0.024200522, Final residual = 3.6634843e-07, No Iterations 3
DILUPBiCG:  Solving for T, Initial residual = 0.0055774295, Final residual = 2.0369491e-07, No Iterations 3
Time = 0.065

DILUPBiCG:  Solving for T, Initial residual = 0.022412874, Final residual = 1.0235933e-08, No Iterations 4
DILUPBiCG:  Solving for T, Initial residual = 0.0031758408, Final residual = 2.0329606e-07, No Iterations 3
Time = 0.07

DILUPBiCG:  Solving for T, Initial residual = 0.020846732, Final residual = 3.2380288e-07, No Iterations 3
DILUPBiCG:  Solving for T, Initial residual = 0.0031390945, Final residual = 3.2551085e-08, No Iterations 3
Time = 0.075

DILUPBiCG:  Solving for T, Initial residual = 0.019610905, Final residual = 2.3630931e-07, No Iterations 3
DILUPBiCG:  Solving for T, Initial residual = 0.002671148, Final residual = 8.1802214e-08, No Iterations 3
Time = 0.08

DILUPBiCG:  Solving for T, Initial residual = 0.01848494, Final residual = 2.2104402e-07, No Iterations 3
DILUPBiCG:  Solving for T, Initial residual = 0.0034753844, Final residual = 2.1723806e-07, No Iterations 3
Time = 0.085

DILUPBiCG:  Solving for T, Initial residual = 0.017524349, Final residual = 3.0194756e-07, No Iterations 3
DILUPBiCG:  Solving for T, Initial residual = 0.0021330008, Final residual = 1.2953765e-07, No Iterations 3
Time = 0.09

DILUPBiCG:  Solving for T, Initial residual = 0.016627039, Final residual = 4.970207e-07, No Iterations 3
DILUPBiCG:  Solving for T, Initial residual = 0.002969726, Final residual = 1.0773926e-07, No Iterations 3
Time = 0.095

DILUPBiCG:  Solving for T, Initial residual = 0.016011231, Final residual = 1.7806836e-07, No Iterations 3
DILUPBiCG:  Solving for T, Initial residual = 0.002207333, Final residual = 3.5916128e-08, No Iterations 3
Time = 0.1

DILUPBiCG:  Solving for T, Initial residual = 0.015325244, Final residual = 1.7979665e-07, No Iterations 3
DILUPBiCG:  Solving for T, Initial residual = 0.0026171187, Final residual = 5.3227564e-08, No Iterations 3
Time = 0.105

DILUPBiCG:  Solving for T, Initial residual = 0.01487513, Final residual = 2.2456375e-07, No Iterations 3
DILUPBiCG:  Solving for T, Initial residual = 0.002842076, Final residual = 4.5007449e-08, No Iterations 3
Time = 0.11

DILUPBiCG:  Solving for T, Initial residual = 0.014423769, Final residual = 6.6016181e-07, No Iterations 3
DILUPBiCG:  Solving for T, Initial residual = 0.0031708652, Final residual = 2.4424656e-08, No Iterations 3
Time = 0.115

DILUPBiCG:  Solving for T, Initial residual = 0.014070421, Final residual = 6.4630045e-09, No Iterations 4
DILUPBiCG:  Solving for T, Initial residual = 0.0031952871, Final residual = 3.6212866e-08, No Iterations 3
Time = 0.12

DILUPBiCG:  Solving for T, Initial residual = 0.013805597, Final residual = 3.8456967e-07, No Iterations 3
DILUPBiCG:  Solving for T, Initial residual = 0.0031991465, Final residual = 9.3838807e-07, No Iterations 2
Time = 0.125

DILUPBiCG:  Solving for T, Initial residual = 0.013566124, Final residual = 4.4906382e-07, No Iterations 3
DILUPBiCG:  Solving for T, Initial residual = 0.0033079337, Final residual = 1.6286005e-07, No Iterations 3
Time = 0.13

DILUPBiCG:  Solving for T, Initial residual = 0.013194206, Final residual = 6.5201459e-07, No Iterations 3
DILUPBiCG:  Solving for T, Initial residual = 0.0035865864, Final residual = 9.8641523e-07, No Iterations 2
Time = 0.135

DILUPBiCG:  Solving for T, Initial residual = 0.01292946, Final residual = 4.4986344e-07, No Iterations 3
DILUPBiCG:  Solving for T, Initial residual = 0.0033482786, Final residual = 2.4750449e-08, No Iterations 3
Time = 0.14

DILUPBiCG:  Solving for T, Initial residual = 0.012561015, Final residual = 7.3926871e-08, No Iterations 4
DILUPBiCG:  Solving for T, Initial residual = 0.0032273046, Final residual = 8.4598092e-07, No Iterations 2
Time = 0.145

DILUPBiCG:  Solving for T, Initial residual = 0.012238708, Final residual = 3.3283324e-07, No Iterations 3
DILUPBiCG:  Solving for T, Initial residual = 0.00299842, Final residual = 2.9162437e-08, No Iterations 3
Time = 0.15

DILUPBiCG:  Solving for T, Initial residual = 0.011861102, Final residual = 4.7926598e-07, No Iterations 3
DILUPBiCG:  Solving for T, Initial residual = 0.0029479056, Final residual = 5.7123579e-08, No Iterations 3
Time = 0.155

DILUPBiCG:  Solving for T, Initial residual = 0.011582991, Final residual = 6.0910853e-07, No Iterations 3
DILUPBiCG:  Solving for T, Initial residual = 0.0026820136, Final residual = 3.6305632e-08, No Iterations 3
Time = 0.16

DILUPBiCG:  Solving for T, Initial residual = 0.011152753, Final residual = 3.1655441e-07, No Iterations 3
DILUPBiCG:  Solving for T, Initial residual = 0.0029851271, Final residual = 2.810297e-08, No Iterations 3
Time = 0.165

DILUPBiCG:  Solving for T, Initial residual = 0.010997988, Final residual = 2.8667175e-07, No Iterations 3
DILUPBiCG:  Solving for T, Initial residual = 0.0029514522, Final residual = 4.5586559e-07, No Iterations 3
Time = 0.17

DILUPBiCG:  Solving for T, Initial residual = 0.010783173, Final residual = 4.4187416e-07, No Iterations 3
DILUPBiCG:  Solving for T, Initial residual = 0.0030325896, Final residual = 8.8123785e-07, No Iterations 2
Time = 0.175

DILUPBiCG:  Solving for T, Initial residual = 0.010522226, Final residual = 3.1579387e-07, No Iterations 3
DILUPBiCG:  Solving for T, Initial residual = 0.0028388371, Final residual = 1.9264107e-08, No Iterations 3
Time = 0.18

DILUPBiCG:  Solving for T, Initial residual = 0.010332008, Final residual = 2.3923633e-07, No Iterations 3
DILUPBiCG:  Solving for T, Initial residual = 0.0027774624, Final residual = 6.4153118e-07, No Iterations 2
Time = 0.185

DILUPBiCG:  Solving for T, Initial residual = 0.010113746, Final residual = 4.0436241e-07, No Iterations 3
DILUPBiCG:  Solving for T, Initial residual = 0.0028411809, Final residual = 2.3904013e-08, No Iterations 3
Time = 0.19

DILUPBiCG:  Solving for T, Initial residual = 0.0098956167, Final residual = 3.3797462e-07, No Iterations 3
DILUPBiCG:  Solving for T, Initial residual = 0.0028379428, Final residual = 3.8214545e-08, No Iterations 3
Time = 0.195

DILUPBiCG:  Solving for T, Initial residual = 0.0097900963, Final residual = 3.2258621e-07, No Iterations 3
DILUPBiCG:  Solving for T, Initial residual = 0.0025907963, Final residual = 3.1704833e-08, No Iterations 3
Time = 0.2

DILUPBiCG:  Solving for T, Initial residual = 0.0095931741, Final residual = 5.9351338e-07, No Iterations 3
DILUPBiCG:  Solving for T, Initial residual = 0.0030005993, Final residual = 7.9423306e-07, No Iterations 2
Time = 0.205

DILUPBiCG:  Solving for T, Initial residual = 0.0094425733, Final residual = 4.7053166e-07, No Iterations 3
DILUPBiCG:  Solving for T, Initial residual = 0.0030596092, Final residual = 7.8775944e-07, No Iterations 2
Time = 0.21

DILUPBiCG:  Solving for T, Initial residual = 0.0094342791, Final residual = 3.8384157e-07, No Iterations 3
DILUPBiCG:  Solving for T, Initial residual = 0.0032079116, Final residual = 9.7874743e-07, No Iterations 2
Time = 0.215

DILUPBiCG:  Solving for T, Initial residual = 0.009416313, Final residual = 4.1392771e-07, No Iterations 3
DILUPBiCG:  Solving for T, Initial residual = 0.0030202488, Final residual = 4.6278913e-08, No Iterations 3
Time = 0.22

DILUPBiCG:  Solving for T, Initial residual = 0.0092926469, Final residual = 6.9115961e-07, No Iterations 3
DILUPBiCG:  Solving for T, Initial residual = 0.0033980812, Final residual = 6.7641792e-07, No Iterations 2
Time = 0.225

DILUPBiCG:  Solving for T, Initial residual = 0.0092649573, Final residual = 2.3420937e-07, No Iterations 3
DILUPBiCG:  Solving for T, Initial residual = 0.0029800398, Final residual = 9.6055767e-07, No Iterations 2
Time = 0.23

DILUPBiCG:  Solving for T, Initial residual = 0.0089815318, Final residual = 4.3259976e-07, No Iterations 3
DILUPBiCG:  Solving for T, Initial residual = 0.0034306437, Final residual = 3.5184949e-08, No Iterations 3
Time = 0.235

DILUPBiCG:  Solving for T, Initial residual = 0.0090185714, Final residual = 4.6954583e-07, No Iterations 3
DILUPBiCG:  Solving for T, Initial residual = 0.0030491823, Final residual = 9.2641183e-07, No Iterations 2
Time = 0.24

DILUPBiCG:  Solving for T, Initial residual = 0.0088951185, Final residual = 6.0776802e-07, No Iterations 3
DILUPBiCG:  Solving for T, Initial residual = 0.0033820147, Final residual = 2.5526109e-08, No Iterations 3
Time = 0.245

DILUPBiCG:  Solving for T, Initial residual = 0.008923394, Final residual = 3.124015e-07, No Iterations 3
DILUPBiCG:  Solving for T, Initial residual = 0.0032142613, Final residual = 9.0888477e-07, No Iterations 2
Time = 0.25

DILUPBiCG:  Solving for T, Initial residual = 0.0087033328, Final residual = 3.9704856e-07, No Iterations 3
DILUPBiCG:  Solving for T, Initial residual = 0.0035472851, Final residual = 2.0196457e-08, No Iterations 3
Time = 0.255

DILUPBiCG:  Solving for T, Initial residual = 0.0087818743, Final residual = 4.8280968e-07, No Iterations 3
DILUPBiCG:  Solving for T, Initial residual = 0.0033620311, Final residual = 9.2028163e-07, No Iterations 2
Time = 0.26

DILUPBiCG:  Solving for T, Initial residual = 0.0087011731, Final residual = 8.3508045e-07, No Iterations 3
DILUPBiCG:  Solving for T, Initial residual = 0.0038670495, Final residual = 2.2873122e-08, No Iterations 3
Time = 0.265

DILUPBiCG:  Solving for T, Initial residual = 0.0087878494, Final residual = 4.3048747e-07, No Iterations 3
DILUPBiCG:  Solving for T, Initial residual = 0.0028681245, Final residual = 2.3835823e-08, No Iterations 3
Time = 0.27

DILUPBiCG:  Solving for T, Initial residual = 0.0084014924, Final residual = 4.0698043e-07, No Iterations 3
DILUPBiCG:  Solving for T, Initial residual = 0.0037044926, Final residual = 2.9167351e-08, No Iterations 3
Time = 0.275

DILUPBiCG:  Solving for T, Initial residual = 0.0086130093, Final residual = 4.2254341e-07, No Iterations 3
DILUPBiCG:  Solving for T, Initial residual = 0.0031086887, Final residual = 8.985337e-07, No Iterations 2
Time = 0.28

DILUPBiCG:  Solving for T, Initial residual = 0.0083821795, Final residual = 6.9609686e-07, No Iterations 3
DILUPBiCG:  Solving for T, Initial residual = 0.003699366, Final residual = 8.3588081e-08, No Iterations 3
Time = 0.285

DILUPBiCG:  Solving for T, Initial residual = 0.0084412757, Final residual = 4.6155766e-07, No Iterations 3
DILUPBiCG:  Solving for T, Initial residual = 0.0029863197, Final residual = 2.8323401e-09, No Iterations 4
Time = 0.29

DILUPBiCG:  Solving for T, Initial residual = 0.0080407749, Final residual = 4.6198387e-07, No Iterations 3
DILUPBiCG:  Solving for T, Initial residual = 0.0036517295, Final residual = 9.827949e-07, No Iterations 2
Time = 0.295

DILUPBiCG:  Solving for T, Initial residual = 0.0082133832, Final residual = 5.9902497e-07, No Iterations 3
DILUPBiCG:  Solving for T, Initial residual = 0.0033288842, Final residual = 4.6748426e-08, No Iterations 3
Time = 0.3

DILUPBiCG:  Solving for T, Initial residual = 0.0080710938, Final residual = 6.1201712e-07, No Iterations 3
DILUPBiCG:  Solving for T, Initial residual = 0.0034273775, Final residual = 9.2334248e-07, No Iterations 2
Time = 0.305

DILUPBiCG:  Solving for T, Initial residual = 0.0079835745, Final residual = 5.2981142e-07, No Iterations 3
DILUPBiCG:  Solving for T, Initial residual = 0.0035992569, Final residual = 2.5084652e-08, No Iterations 3
Time = 0.31

DILUPBiCG:  Solving for T, Initial residual = 0.0080493578, Final residual = 6.0975204e-07, No Iterations 3
DILUPBiCG:  Solving for T, Initial residual = 0.0035300651, Final residual = 9.8193536e-07, No Iterations 2
Time = 0.315

DILUPBiCG:  Solving for T, Initial residual = 0.0078952759, Final residual = 6.4528632e-07, No Iterations 3
DILUPBiCG:  Solving for T, Initial residual = 0.0036822519, Final residual = 3.3680103e-08, No Iterations 3
Time = 0.32

DILUPBiCG:  Solving for T, Initial residual = 0.0079688045, Final residual = 5.7554366e-07, No Iterations 3
DILUPBiCG:  Solving for T, Initial residual = 0.0036942999, Final residual = 3.5665697e-08, No Iterations 3
Time = 0.325

DILUPBiCG:  Solving for T, Initial residual = 0.0080196988, Final residual = 6.5256394e-07, No Iterations 3
DILUPBiCG:  Solving for T, Initial residual = 0.0035060402, Final residual = 1.0648847e-07, No Iterations 3
Time = 0.33

DILUPBiCG:  Solving for T, Initial residual = 0.0078221682, Final residual = 5.0740307e-07, No Iterations 3
DILUPBiCG:  Solving for T, Initial residual = 0.0036284895, Final residual = 8.043861e-08, No Iterations 3
Time = 0.335

DILUPBiCG:  Solving for T, Initial residual = 0.0078661872, Final residual = 5.5669373e-07, No Iterations 3
DILUPBiCG:  Solving for T, Initial residual = 0.0037404393, Final residual = 5.6301174e-08, No Iterations 3
Time = 0.34

DILUPBiCG:  Solving for T, Initial residual = 0.0077977672, Final residual = 6.6671421e-07, No Iterations 3
DILUPBiCG:  Solving for T, Initial residual = 0.0037136987, Final residual = 5.5212884e-08, No Iterations 3
Time = 0.345

DILUPBiCG:  Solving for T, Initial residual = 0.007743362, Final residual = 4.3941447e-07, No Iterations 3
DILUPBiCG:  Solving for T, Initial residual = 0.0038142262, Final residual = 6.6404207e-08, No Iterations 3
Time = 0.35

DILUPBiCG:  Solving for T, Initial residual = 0.0077966004, Final residual = 4.8037889e-07, No Iterations 3
DILUPBiCG:  Solving for T, Initial residual = 0.0036424282, Final residual = 5.3904271e-08, No Iterations 3
Time = 0.355

DILUPBiCG:  Solving for T, Initial residual = 0.0076233849, Final residual = 3.9050651e-07, No Iterations 3
DILUPBiCG:  Solving for T, Initial residual = 0.0036788696, Final residual = 3.4845525e-08, No Iterations 3
Time = 0.36

DILUPBiCG:  Solving for T, Initial residual = 0.007688196, Final residual = 5.3874463e-07, No Iterations 3
DILUPBiCG:  Solving for T, Initial residual = 0.0038893502, Final residual = 5.6749081e-08, No Iterations 3
Time = 0.365

DILUPBiCG:  Solving for T, Initial residual = 0.0076601495, Final residual = 5.385813e-07, No Iterations 3
DILUPBiCG:  Solving for T, Initial residual = 0.003998754, Final residual = 4.7017311e-08, No Iterations 3
Time = 0.37

DILUPBiCG:  Solving for T, Initial residual = 0.0076870016, Final residual = 4.8882101e-07, No Iterations 3
DILUPBiCG:  Solving for T, Initial residual = 0.0034702061, Final residual = 4.5272784e-08, No Iterations 3
Time = 0.375

DILUPBiCG:  Solving for T, Initial residual = 0.0074315187, Final residual = 3.2426329e-07, No Iterations 3
DILUPBiCG:  Solving for T, Initial residual = 0.0038871499, Final residual = 3.2562745e-08, No Iterations 3
Time = 0.38

DILUPBiCG:  Solving for T, Initial residual = 0.0074779024, Final residual = 6.1946493e-07, No Iterations 3
DILUPBiCG:  Solving for T, Initial residual = 0.0038915084, Final residual = 5.0207783e-08, No Iterations 3
Time = 0.385

DILUPBiCG:  Solving for T, Initial residual = 0.0074588012, Final residual = 4.6821436e-07, No Iterations 3
DILUPBiCG:  Solving for T, Initial residual = 0.0038817162, Final residual = 4.9847458e-08, No Iterations 3
Time = 0.39

DILUPBiCG:  Solving for T, Initial residual = 0.0074061711, Final residual = 6.7647443e-07, No Iterations 3
DILUPBiCG:  Solving for T, Initial residual = 0.0042022151, Final residual = 8.6649246e-08, No Iterations 3
Time = 0.395

DILUPBiCG:  Solving for T, Initial residual = 0.0075980515, Final residual = 3.6696579e-07, No Iterations 3
DILUPBiCG:  Solving for T, Initial residual = 0.0036752277, Final residual = 3.2361715e-08, No Iterations 3
Time = 0.4

DILUPBiCG:  Solving for T, Initial residual = 0.0073494736, Final residual = 5.1107858e-07, No Iterations 3
DILUPBiCG:  Solving for T, Initial residual = 0.0039817095, Final residual = 4.8492454e-08, No Iterations 3
Time = 0.405

DILUPBiCG:  Solving for T, Initial residual = 0.007370391, Final residual = 3.8096202e-07, No Iterations 3
DILUPBiCG:  Solving for T, Initial residual = 0.0037600012, Final residual = 9.7390063e-07, No Iterations 2
Time = 0.41

DILUPBiCG:  Solving for T, Initial residual = 0.0072862756, Final residual = 8.3120985e-07, No Iterations 3
DILUPBiCG:  Solving for T, Initial residual = 0.0043385997, Final residual = 2.9337989e-08, No Iterations 3
Time = 0.415

DILUPBiCG:  Solving for T, Initial residual = 0.0075294984, Final residual = 3.2328531e-07, No Iterations 3
DILUPBiCG:  Solving for T, Initial residual = 0.0038445212, Final residual = 2.0238663e-07, No Iterations 3
Time = 0.42

DILUPBiCG:  Solving for T, Initial residual = 0.0072025529, Final residual = 4.6165744e-07, No Iterations 3
DILUPBiCG:  Solving for T, Initial residual = 0.0040473547, Final residual = 1.2253687e-07, No Iterations 3
Time = 0.425

DILUPBiCG:  Solving for T, Initial residual = 0.0072739519, Final residual = 4.9281871e-07, No Iterations 3
DILUPBiCG:  Solving for T, Initial residual = 0.0043187493, Final residual = 6.0194756e-08, No Iterations 3
Time = 0.43

DILUPBiCG:  Solving for T, Initial residual = 0.0074107093, Final residual = 5.6379541e-07, No Iterations 3
DILUPBiCG:  Solving for T, Initial residual = 0.0039299166, Final residual = 6.3262548e-08, No Iterations 3
Time = 0.435

DILUPBiCG:  Solving for T, Initial residual = 0.0073026341, Final residual = 3.1369465e-07, No Iterations 3
DILUPBiCG:  Solving for T, Initial residual = 0.0041034229, Final residual = 6.5363173e-08, No Iterations 3
Time = 0.44

DILUPBiCG:  Solving for T, Initial residual = 0.0074252403, Final residual = 7.5666209e-07, No Iterations 3
DILUPBiCG:  Solving for T, Initial residual = 0.004443994, Final residual = 2.9875696e-08, No Iterations 3
Time = 0.445

DILUPBiCG:  Solving for T, Initial residual = 0.0074257329, Final residual = 3.5930793e-07, No Iterations 3
DILUPBiCG:  Solving for T, Initial residual = 0.0034268989, Final residual = 3.770829e-08, No Iterations 3
Time = 0.45

DILUPBiCG:  Solving for T, Initial residual = 0.0069308484, Final residual = 6.4167339e-07, No Iterations 3
DILUPBiCG:  Solving for T, Initial residual = 0.0044276966, Final residual = 3.7941975e-08, No Iterations 3
Time = 0.455

DILUPBiCG:  Solving for T, Initial residual = 0.0072419523, Final residual = 3.4095692e-07, No Iterations 3
DILUPBiCG:  Solving for T, Initial residual = 0.0038264849, Final residual = 3.9915695e-08, No Iterations 3
Time = 0.46

DILUPBiCG:  Solving for T, Initial residual = 0.0071142234, Final residual = 6.3122948e-07, No Iterations 3
DILUPBiCG:  Solving for T, Initial residual = 0.0048976008, Final residual = 3.0880914e-08, No Iterations 3
Time = 0.465

DILUPBiCG:  Solving for T, Initial residual = 0.0074716386, Final residual = 3.8195095e-07, No Iterations 3
DILUPBiCG:  Solving for T, Initial residual = 0.0040331262, Final residual = 4.1171544e-08, No Iterations 3
Time = 0.47

DILUPBiCG:  Solving for T, Initial residual = 0.0072236134, Final residual = 7.4210629e-07, No Iterations 3
DILUPBiCG:  Solving for T, Initial residual = 0.0048711378, Final residual = 5.1389431e-08, No Iterations 3
Time = 0.475

DILUPBiCG:  Solving for T, Initial residual = 0.0074543005, Final residual = 5.2208144e-07, No Iterations 3
DILUPBiCG:  Solving for T, Initial residual = 0.0039553219, Final residual = 4.0728102e-08, No Iterations 3
Time = 0.48

DILUPBiCG:  Solving for T, Initial residual = 0.0070914603, Final residual = 6.7398599e-07, No Iterations 3
DILUPBiCG:  Solving for T, Initial residual = 0.0051546344, Final residual = 8.4646959e-08, No Iterations 3
Time = 0.485

DILUPBiCG:  Solving for T, Initial residual = 0.0075142798, Final residual = 2.9690858e-07, No Iterations 3
DILUPBiCG:  Solving for T, Initial residual = 0.0035049431, Final residual = 4.0774598e-08, No Iterations 3
Time = 0.49

DILUPBiCG:  Solving for T, Initial residual = 0.0067541461, Final residual = 4.3255826e-07, No Iterations 3
DILUPBiCG:  Solving for T, Initial residual = 0.004746337, Final residual = 3.5118826e-08, No Iterations 3
Time = 0.495

DILUPBiCG:  Solving for T, Initial residual = 0.007294653, Final residual = 7.7466905e-07, No Iterations 3
DILUPBiCG:  Solving for T, Initial residual = 0.0049601017, Final residual = 2.6855516e-07, No Iterations 3
Time = 0.5

DILUPBiCG:  Solving for T, Initial residual = 0.0075251618, Final residual = 5.6401708e-07, No Iterations 3
DILUPBiCG:  Solving for T, Initial residual = 0.0046130678, Final residual = 5.734217e-08, No Iterations 3
Time = 0.505

DILUPBiCG:  Solving for T, Initial residual = 0.0074760758, Final residual = 4.7070475e-07, No Iterations 3
DILUPBiCG:  Solving for T, Initial residual = 0.004640736, Final residual = 1.7771713e-07, No Iterations 3
Time = 0.51

DILUPBiCG:  Solving for T, Initial residual = 0.007384224, Final residual = 5.3472153e-07, No Iterations 3
DILUPBiCG:  Solving for T, Initial residual = 0.0046596828, Final residual = 5.1842712e-08, No Iterations 3
Time = 0.515

DILUPBiCG:  Solving for T, Initial residual = 0.0074082351, Final residual = 7.2896004e-07, No Iterations 3
DILUPBiCG:  Solving for T, Initial residual = 0.005147589, Final residual = 3.344848e-08, No Iterations 3
Time = 0.52

DILUPBiCG:  Solving for T, Initial residual = 0.0075188931, Final residual = 4.7245981e-07, No Iterations 3
DILUPBiCG:  Solving for T, Initial residual = 0.0045082056, Final residual = 4.8907927e-08, No Iterations 3
Time = 0.525

DILUPBiCG:  Solving for T, Initial residual = 0.0073112978, Final residual = 6.0328908e-07, No Iterations 3
DILUPBiCG:  Solving for T, Initial residual = 0.0044065245, Final residual = 1.4685313e-07, No Iterations 3
Time = 0.53

DILUPBiCG:  Solving for T, Initial residual = 0.0070827358, Final residual = 5.5429706e-07, No Iterations 3
DILUPBiCG:  Solving for T, Initial residual = 0.0054136143, Final residual = 8.9432236e-10, No Iterations 4
Time = 0.535

DILUPBiCG:  Solving for T, Initial residual = 0.0076355768, Final residual = 5.4051404e-07, No Iterations 3
DILUPBiCG:  Solving for T, Initial residual = 0.0044559658, Final residual = 5.096964e-08, No Iterations 3
Time = 0.54

DILUPBiCG:  Solving for T, Initial residual = 0.0071147227, Final residual = 5.1633399e-07, No Iterations 3
DILUPBiCG:  Solving for T, Initial residual = 0.0047430196, Final residual = 1.150006e-07, No Iterations 3
Time = 0.545

DILUPBiCG:  Solving for T, Initial residual = 0.007283425, Final residual = 6.0189761e-07, No Iterations 3
DILUPBiCG:  Solving for T, Initial residual = 0.0051018123, Final residual = 5.3466213e-08, No Iterations 3
Time = 0.55

DILUPBiCG:  Solving for T, Initial residual = 0.0072896729, Final residual = 5.5703206e-07, No Iterations 3
DILUPBiCG:  Solving for T, Initial residual = 0.0045615718, Final residual = 4.7959978e-08, No Iterations 3
Time = 0.555

DILUPBiCG:  Solving for T, Initial residual = 0.0072823936, Final residual = 7.1319138e-07, No Iterations 3
DILUPBiCG:  Solving for T, Initial residual = 0.0053727551, Final residual = 3.147953e-08, No Iterations 3
Time = 0.56

DILUPBiCG:  Solving for T, Initial residual = 0.0075096636, Final residual = 4.1549187e-07, No Iterations 3
DILUPBiCG:  Solving for T, Initial residual = 0.004413258, Final residual = 6.5624e-08, No Iterations 3
Time = 0.565

DILUPBiCG:  Solving for T, Initial residual = 0.0070671347, Final residual = 5.9023796e-07, No Iterations 3
DILUPBiCG:  Solving for T, Initial residual = 0.0054575872, Final residual = 4.8077881e-08, No Iterations 3
Time = 0.57

DILUPBiCG:  Solving for T, Initial residual = 0.0074765706, Final residual = 8.2910471e-07, No Iterations 3
DILUPBiCG:  Solving for T, Initial residual = 0.0052162225, Final residual = 2.9149413e-08, No Iterations 3
Time = 0.575

DILUPBiCG:  Solving for T, Initial residual = 0.0073850329, Final residual = 7.3190194e-07, No Iterations 3
DILUPBiCG:  Solving for T, Initial residual = 0.0050906163, Final residual = 7.0150004e-08, No Iterations 3
Time = 0.58

DILUPBiCG:  Solving for T, Initial residual = 0.0073213768, Final residual = 5.7681392e-07, No Iterations 3
DILUPBiCG:  Solving for T, Initial residual = 0.0051837387, Final residual = 5.0358272e-08, No Iterations 3
Time = 0.585

DILUPBiCG:  Solving for T, Initial residual = 0.0073265821, Final residual = 8.3585043e-07, No Iterations 3
DILUPBiCG:  Solving for T, Initial residual = 0.0053723902, Final residual = 2.1930249e-09, No Iterations 4
Time = 0.59

DILUPBiCG:  Solving for T, Initial residual = 0.0074763712, Final residual = 7.7034605e-07, No Iterations 3
DILUPBiCG:  Solving for T, Initial residual = 0.0052490179, Final residual = 5.3635064e-08, No Iterations 3
Time = 0.595

DILUPBiCG:  Solving for T, Initial residual = 0.007309531, Final residual = 7.7042116e-07, No Iterations 3
DILUPBiCG:  Solving for T, Initial residual = 0.0052075285, Final residual = 1.8588629e-07, No Iterations 3
Time = 0.6

DILUPBiCG:  Solving for T, Initial residual = 0.0072974292, Final residual = 5.7447823e-07, No Iterations 3
DILUPBiCG:  Solving for T, Initial residual = 0.0050376136, Final residual = 5.6952994e-08, No Iterations 3
Time = 0.605

DILUPBiCG:  Solving for T, Initial residual = 0.0071768793, Final residual = 8.0855645e-07, No Iterations 3
DILUPBiCG:  Solving for T, Initial residual = 0.0055752507, Final residual = 6.1113838e-08, No Iterations 3
Time = 0.61

DILUPBiCG:  Solving for T, Initial residual = 0.0073186482, Final residual = 7.6379554e-07, No Iterations 3
DILUPBiCG:  Solving for T, Initial residual = 0.0051878943, Final residual = 4.1704837e-08, No Iterations 3
Time = 0.615

DILUPBiCG:  Solving for T, Initial residual = 0.0072263728, Final residual = 5.6001641e-07, No Iterations 3
DILUPBiCG:  Solving for T, Initial residual = 0.005223253, Final residual = 3.8583811e-08, No Iterations 3
Time = 0.62

DILUPBiCG:  Solving for T, Initial residual = 0.0071579909, Final residual = 6.4438387e-07, No Iterations 3
DILUPBiCG:  Solving for T, Initial residual = 0.0057517654, Final residual = 4.3417199e-08, No Iterations 3
Time = 0.625

DILUPBiCG:  Solving for T, Initial residual = 0.0075152465, Final residual = 4.42458e-07, No Iterations 3
DILUPBiCG:  Solving for T, Initial residual = 0.0050421085, Final residual = 6.4412292e-08, No Iterations 3
Time = 0.63

DILUPBiCG:  Solving for T, Initial residual = 0.0071777139, Final residual = 6.6965922e-07, No Iterations 3
DILUPBiCG:  Solving for T, Initial residual = 0.0056363386, Final residual = 5.10029e-08, No Iterations 3
Time = 0.635

DILUPBiCG:  Solving for T, Initial residual = 0.0073457991, Final residual = 4.2447759e-07, No Iterations 3
DILUPBiCG:  Solving for T, Initial residual = 0.0056031548, Final residual = 3.9074201e-08, No Iterations 3
Time = 0.64

DILUPBiCG:  Solving for T, Initial residual = 0.0074720266, Final residual = 8.6263899e-07, No Iterations 3
DILUPBiCG:  Solving for T, Initial residual = 0.0063397625, Final residual = 7.1080289e-08, No Iterations 3
Time = 0.645

DILUPBiCG:  Solving for T, Initial residual = 0.0076636138, Final residual = 4.472977e-07, No Iterations 3
DILUPBiCG:  Solving for T, Initial residual = 0.004973899, Final residual = 5.6530098e-08, No Iterations 3
Time = 0.65

DILUPBiCG:  Solving for T, Initial residual = 0.007274998, Final residual = 7.0501094e-07, No Iterations 3
DILUPBiCG:  Solving for T, Initial residual = 0.0059427353, Final residual = 6.8364836e-08, No Iterations 3
Time = 0.655

DILUPBiCG:  Solving for T, Initial residual = 0.0074517897, Final residual = 4.6213184e-07, No Iterations 3
DILUPBiCG:  Solving for T, Initial residual = 0.0053041962, Final residual = 5.357682e-08, No Iterations 3
Time = 0.66

DILUPBiCG:  Solving for T, Initial residual = 0.0072055685, Final residual = 8.2826627e-07, No Iterations 3
DILUPBiCG:  Solving for T, Initial residual = 0.0059356338, Final residual = 4.7623422e-08, No Iterations 3
Time = 0.665

DILUPBiCG:  Solving for T, Initial residual = 0.007428071, Final residual = 4.5994979e-07, No Iterations 3
DILUPBiCG:  Solving for T, Initial residual = 0.0056340035, Final residual = 4.5941418e-07, No Iterations 3
Time = 0.67

DILUPBiCG:  Solving for T, Initial residual = 0.0074658284, Final residual = 5.5543662e-07, No Iterations 3
DILUPBiCG:  Solving for T, Initial residual = 0.0060727074, Final residual = 6.9372975e-08, No Iterations 3
Time = 0.675

DILUPBiCG:  Solving for T, Initial residual = 0.0076287394, Final residual = 5.70643e-07, No Iterations 3
DILUPBiCG:  Solving for T, Initial residual = 0.0060974212, Final residual = 4.7311432e-08, No Iterations 3
Time = 0.68

DILUPBiCG:  Solving for T, Initial residual = 0.0076928439, Final residual = 6.6979275e-07, No Iterations 3
DILUPBiCG:  Solving for T, Initial residual = 0.0058121947, Final residual = 7.4148341e-08, No Iterations 3
Time = 0.685

DILUPBiCG:  Solving for T, Initial residual = 0.0075028142, Final residual = 6.2938295e-07, No Iterations 3
DILUPBiCG:  Solving for T, Initial residual = 0.0058606376, Final residual = 5.8671031e-08, No Iterations 3
Time = 0.69

DILUPBiCG:  Solving for T, Initial residual = 0.0076191241, Final residual = 5.8883307e-07, No Iterations 3
DILUPBiCG:  Solving for T, Initial residual = 0.005803818, Final residual = 4.7791673e-08, No Iterations 3
Time = 0.695

DILUPBiCG:  Solving for T, Initial residual = 0.0074357472, Final residual = 7.8604523e-07, No Iterations 3
DILUPBiCG:  Solving for T, Initial residual = 0.0059750473, Final residual = 4.3870863e-08, No Iterations 3
Time = 0.7

DILUPBiCG:  Solving for T, Initial residual = 0.0076006223, Final residual = 5.7696187e-07, No Iterations 3
DILUPBiCG:  Solving for T, Initial residual = 0.0062264349, Final residual = 6.7773527e-08, No Iterations 3
Time = 0.705

DILUPBiCG:  Solving for T, Initial residual = 0.0077663112, Final residual = 4.4890793e-07, No Iterations 3
DILUPBiCG:  Solving for T, Initial residual = 0.0060227783, Final residual = 5.907632e-08, No Iterations 3
Time = 0.71

DILUPBiCG:  Solving for T, Initial residual = 0.0075245399, Final residual = 6.8643561e-07, No Iterations 3
DILUPBiCG:  Solving for T, Initial residual = 0.0060844054, Final residual = 2.2211415e-09, No Iterations 4
Time = 0.715

DILUPBiCG:  Solving for T, Initial residual = 0.0075814782, Final residual = 6.0097884e-07, No Iterations 3
DILUPBiCG:  Solving for T, Initial residual = 0.0064066682, Final residual = 7.9731776e-08, No Iterations 3
Time = 0.72

DILUPBiCG:  Solving for T, Initial residual = 0.0076976496, Final residual = 5.4081637e-07, No Iterations 3
DILUPBiCG:  Solving for T, Initial residual = 0.0056779978, Final residual = 4.9182847e-08, No Iterations 3
Time = 0.725

DILUPBiCG:  Solving for T, Initial residual = 0.0074262154, Final residual = 7.0462159e-07, No Iterations 3
DILUPBiCG:  Solving for T, Initial residual = 0.0064756317, Final residual = 5.881323e-08, No Iterations 3
Time = 0.73

DILUPBiCG:  Solving for T, Initial residual = 0.0077543402, Final residual = 4.7142523e-07, No Iterations 3
DILUPBiCG:  Solving for T, Initial residual = 0.005957338, Final residual = 3.7277773e-08, No Iterations 3
Time = 0.735

DILUPBiCG:  Solving for T, Initial residual = 0.0076408968, Final residual = 8.957438e-07, No Iterations 3
DILUPBiCG:  Solving for T, Initial residual = 0.0069743963, Final residual = 4.7688323e-08, No Iterations 3
Time = 0.74

DILUPBiCG:  Solving for T, Initial residual = 0.0079932022, Final residual = 5.2063048e-07, No Iterations 3
DILUPBiCG:  Solving for T, Initial residual = 0.0059895749, Final residual = 6.0507776e-08, No Iterations 3
Time = 0.745

DILUPBiCG:  Solving for T, Initial residual = 0.007505829, Final residual = 6.9699284e-07, No Iterations 3
DILUPBiCG:  Solving for T, Initial residual = 0.0067719191, Final residual = 6.99765e-08, No Iterations 3
Time = 0.75

DILUPBiCG:  Solving for T, Initial residual = 0.0079505317, Final residual = 5.0342472e-07, No Iterations 3
DILUPBiCG:  Solving for T, Initial residual = 0.0061790071, Final residual = 8.6069449e-08, No Iterations 3
Time = 0.755

DILUPBiCG:  Solving for T, Initial residual = 0.0076375146, Final residual = 6.4424261e-07, No Iterations 3
DILUPBiCG:  Solving for T, Initial residual = 0.0069561815, Final residual = 2.9307193e-07, No Iterations 3
Time = 0.76

DILUPBiCG:  Solving for T, Initial residual = 0.0079588747, Final residual = 6.0413058e-07, No Iterations 3
DILUPBiCG:  Solving for T, Initial residual = 0.0063052911, Final residual = 5.7325675e-08, No Iterations 3
Time = 0.765

DILUPBiCG:  Solving for T, Initial residual = 0.0076973106, Final residual = 6.9190541e-07, No Iterations 3
DILUPBiCG:  Solving for T, Initial residual = 0.0070176433, Final residual = 7.4847016e-08, No Iterations 3
Time = 0.77

DILUPBiCG:  Solving for T, Initial residual = 0.0079807841, Final residual = 4.838648e-07, No Iterations 3
DILUPBiCG:  Solving for T, Initial residual = 0.0061601938, Final residual = 6.6632322e-08, No Iterations 3
Time = 0.775

DILUPBiCG:  Solving for T, Initial residual = 0.0076063784, Final residual = 7.3906461e-07, No Iterations 3
DILUPBiCG:  Solving for T, Initial residual = 0.0073723116, Final residual = 5.0519501e-07, No Iterations 3
Time = 0.78

DILUPBiCG:  Solving for T, Initial residual = 0.0081014002, Final residual = 9.1692203e-07, No Iterations 3
DILUPBiCG:  Solving for T, Initial residual = 0.0065409062, Final residual = 6.8096078e-08, No Iterations 3
Time = 0.785

DILUPBiCG:  Solving for T, Initial residual = 0.0077622512, Final residual = 4.9811383e-07, No Iterations 3
DILUPBiCG:  Solving for T, Initial residual = 0.0067420201, Final residual = 2.4718648e-07, No Iterations 3
Time = 0.79

DILUPBiCG:  Solving for T, Initial residual = 0.0079037876, Final residual = 6.7940681e-07, No Iterations 3
DILUPBiCG:  Solving for T, Initial residual = 0.0073374703, Final residual = 4.5695027e-08, No Iterations 3
Time = 0.795

DILUPBiCG:  Solving for T, Initial residual = 0.0081910332, Final residual = 8.7165972e-07, No Iterations 3
DILUPBiCG:  Solving for T, Initial residual = 0.0067672556, Final residual = 9.7772939e-08, No Iterations 3
Time = 0.8

DILUPBiCG:  Solving for T, Initial residual = 0.0078676546, Final residual = 5.8837766e-07, No Iterations 3
DILUPBiCG:  Solving for T, Initial residual = 0.0069825568, Final residual = 9.4893718e-08, No Iterations 3
Time = 0.805

DILUPBiCG:  Solving for T, Initial residual = 0.0079532769, Final residual = 7.1449992e-07, No Iterations 3
DILUPBiCG:  Solving for T, Initial residual = 0.0066498916, Final residual = 5.3975747e-08, No Iterations 3
Time = 0.81

DILUPBiCG:  Solving for T, Initial residual = 0.0078024415, Final residual = 8.3404916e-07, No Iterations 3
DILUPBiCG:  Solving for T, Initial residual = 0.00764541, Final residual = 5.6729091e-08, No Iterations 3
Time = 0.815

DILUPBiCG:  Solving for T, Initial residual = 0.0083036271, Final residual = 9.3840963e-07, No Iterations 3
DILUPBiCG:  Solving for T, Initial residual = 0.0069310905, Final residual = 6.7016722e-08, No Iterations 3
Time = 0.82

DILUPBiCG:  Solving for T, Initial residual = 0.0080669994, Final residual = 6.8520912e-07, No Iterations 3
DILUPBiCG:  Solving for T, Initial residual = 0.0074654812, Final residual = 1.2756896e-07, No Iterations 3
Time = 0.825

DILUPBiCG:  Solving for T, Initial residual = 0.0081055859, Final residual = 5.4584543e-07, No Iterations 3
DILUPBiCG:  Solving for T, Initial residual = 0.006578972, Final residual = 7.1430463e-08, No Iterations 3
Time = 0.83

DILUPBiCG:  Solving for T, Initial residual = 0.0078837107, Final residual = 6.0018131e-07, No Iterations 3
DILUPBiCG:  Solving for T, Initial residual = 0.0080042218, Final residual = 5.8649859e-08, No Iterations 3
Time = 0.835

DILUPBiCG:  Solving for T, Initial residual = 0.0082139253, Final residual = 6.3706425e-07, No Iterations 3
DILUPBiCG:  Solving for T, Initial residual = 0.0066238662, Final residual = 9.1516722e-08, No Iterations 3
Time = 0.84

DILUPBiCG:  Solving for T, Initial residual = 0.0077917184, Final residual = 7.9168066e-07, No Iterations 3
DILUPBiCG:  Solving for T, Initial residual = 0.0078551489, Final residual = 2.5504658e-07, No Iterations 3
Time = 0.845

DILUPBiCG:  Solving for T, Initial residual = 0.0083524111, Final residual = 8.4988396e-07, No Iterations 3
DILUPBiCG:  Solving for T, Initial residual = 0.0065220597, Final residual = 9.6789091e-08, No Iterations 3
Time = 0.85

DILUPBiCG:  Solving for T, Initial residual = 0.0078844193, Final residual = 6.903255e-07, No Iterations 3
DILUPBiCG:  Solving for T, Initial residual = 0.0073945305, Final residual = 9.0432319e-08, No Iterations 3
Time = 0.855

DILUPBiCG:  Solving for T, Initial residual = 0.0081157709, Final residual = 3.0728622e-08, No Iterations 4
DILUPBiCG:  Solving for T, Initial residual = 0.007752317, Final residual = 1.2325831e-07, No Iterations 3
Time = 0.86

DILUPBiCG:  Solving for T, Initial residual = 0.0083054214, Final residual = 7.6428663e-07, No Iterations 3
DILUPBiCG:  Solving for T, Initial residual = 0.0074174283, Final residual = 9.9869186e-08, No Iterations 3
Time = 0.865

DILUPBiCG:  Solving for T, Initial residual = 0.0081472633, Final residual = 9.6522205e-07, No Iterations 3
DILUPBiCG:  Solving for T, Initial residual = 0.0069041893, Final residual = 6.3110334e-08, No Iterations 3
Time = 0.87

DILUPBiCG:  Solving for T, Initial residual = 0.0077910732, Final residual = 3.1980622e-08, No Iterations 4
DILUPBiCG:  Solving for T, Initial residual = 0.0076273405, Final residual = 1.4396606e-07, No Iterations 3
Time = 0.875

DILUPBiCG:  Solving for T, Initial residual = 0.0082086139, Final residual = 8.1796061e-07, No Iterations 3
DILUPBiCG:  Solving for T, Initial residual = 0.0077988122, Final residual = 6.0083665e-08, No Iterations 3
Time = 0.88

DILUPBiCG:  Solving for T, Initial residual = 0.008461464, Final residual = 8.6047209e-07, No Iterations 3
DILUPBiCG:  Solving for T, Initial residual = 0.0076214665, Final residual = 1.6559723e-07, No Iterations 3
Time = 0.885

DILUPBiCG:  Solving for T, Initial residual = 0.0082519712, Final residual = 9.9416415e-07, No Iterations 3
DILUPBiCG:  Solving for T, Initial residual = 0.0072237734, Final residual = 7.0225534e-08, No Iterations 3
Time = 0.89

DILUPBiCG:  Solving for T, Initial residual = 0.0080568322, Final residual = 6.1212344e-07, No Iterations 3
DILUPBiCG:  Solving for T, Initial residual = 0.007256841, Final residual = 5.6800708e-08, No Iterations 3
Time = 0.895

DILUPBiCG:  Solving for T, Initial residual = 0.0079564703, Final residual = 3.03418e-08, No Iterations 4
DILUPBiCG:  Solving for T, Initial residual = 0.0088415473, Final residual = 9.0004969e-08, No Iterations 3
Time = 0.9

DILUPBiCG:  Solving for T, Initial residual = 0.0086169249, Final residual = 6.64361e-07, No Iterations 3
DILUPBiCG:  Solving for T, Initial residual = 0.0068069673, Final residual = 6.4780716e-08, No Iterations 3
Time = 0.905

DILUPBiCG:  Solving for T, Initial residual = 0.0079746525, Final residual = 9.9919732e-07, No Iterations 3
DILUPBiCG:  Solving for T, Initial residual = 0.0085923693, Final residual = 5.8254329e-08, No Iterations 3
Time = 0.91

DILUPBiCG:  Solving for T, Initial residual = 0.0084260134, Final residual = 5.6135696e-07, No Iterations 3
DILUPBiCG:  Solving for T, Initial residual = 0.0074165936, Final residual = 7.8595526e-08, No Iterations 3
Time = 0.915

DILUPBiCG:  Solving for T, Initial residual = 0.0081160163, Final residual = 3.2240284e-08, No Iterations 4
DILUPBiCG:  Solving for T, Initial residual = 0.0083998835, Final residual = 4.9516331e-08, No Iterations 3
Time = 0.92

DILUPBiCG:  Solving for T, Initial residual = 0.0083712236, Final residual = 6.1579173e-07, No Iterations 3
DILUPBiCG:  Solving for T, Initial residual = 0.0075055662, Final residual = 7.2714942e-08, No Iterations 3
Time = 0.925

DILUPBiCG:  Solving for T, Initial residual = 0.0081143697, Final residual = 9.2810314e-07, No Iterations 3
DILUPBiCG:  Solving for T, Initial residual = 0.0081305099, Final residual = 8.272964e-07, No Iterations 3
Time = 0.93

DILUPBiCG:  Solving for T, Initial residual = 0.0084909914, Final residual = 2.8928621e-08, No Iterations 4
DILUPBiCG:  Solving for T, Initial residual = 0.0083238317, Final residual = 6.1730022e-08, No Iterations 3
Time = 0.935

DILUPBiCG:  Solving for T, Initial residual = 0.0085266465, Final residual = 9.3083357e-07, No Iterations 3
DILUPBiCG:  Solving for T, Initial residual = 0.0078199136, Final residual = 4.8202907e-08, No Iterations 3
Time = 0.94

DILUPBiCG:  Solving for T, Initial residual = 0.0080234022, Final residual = 9.796057e-07, No Iterations 3
DILUPBiCG:  Solving for T, Initial residual = 0.0082360559, Final residual = 7.3458377e-08, No Iterations 3
Time = 0.945

DILUPBiCG:  Solving for T, Initial residual = 0.0083042279, Final residual = 5.9545885e-07, No Iterations 3
DILUPBiCG:  Solving for T, Initial residual = 0.0078510999, Final residual = 5.8929324e-08, No Iterations 3
Time = 0.95

DILUPBiCG:  Solving for T, Initial residual = 0.0082007391, Final residual = 7.8314014e-07, No Iterations 3
DILUPBiCG:  Solving for T, Initial residual = 0.0081725153, Final residual = 9.1243801e-08, No Iterations 3
Time = 0.955

DILUPBiCG:  Solving for T, Initial residual = 0.0083594737, Final residual = 7.6735093e-07, No Iterations 3
DILUPBiCG:  Solving for T, Initial residual = 0.0081827792, Final residual = 4.8365342e-08, No Iterations 3
Time = 0.96

DILUPBiCG:  Solving for T, Initial residual = 0.0084430514, Final residual = 9.9350175e-07, No Iterations 3
DILUPBiCG:  Solving for T, Initial residual = 0.0082019135, Final residual = 6.0185792e-08, No Iterations 3
Time = 0.965

DILUPBiCG:  Solving for T, Initial residual = 0.0083159778, Final residual = 2.7223186e-08, No Iterations 4
DILUPBiCG:  Solving for T, Initial residual = 0.00743855, Final residual = 7.2000151e-08, No Iterations 3
Time = 0.97

DILUPBiCG:  Solving for T, Initial residual = 0.0081053998, Final residual = 9.2563616e-07, No Iterations 3
DILUPBiCG:  Solving for T, Initial residual = 0.0081789577, Final residual = 5.1601987e-08, No Iterations 3
Time = 0.975

DILUPBiCG:  Solving for T, Initial residual = 0.008321691, Final residual = 2.7854988e-08, No Iterations 4
DILUPBiCG:  Solving for T, Initial residual = 0.008345774, Final residual = 5.0082639e-08, No Iterations 3
Time = 0.98

DILUPBiCG:  Solving for T, Initial residual = 0.0085394761, Final residual = 8.8553143e-07, No Iterations 3
DILUPBiCG:  Solving for T, Initial residual = 0.0085444667, Final residual = 6.1282587e-08, No Iterations 3
Time = 0.985

DILUPBiCG:  Solving for T, Initial residual = 0.008562449, Final residual = 9.3700152e-07, No Iterations 3
DILUPBiCG:  Solving for T, Initial residual = 0.0085026516, Final residual = 5.2148609e-08, No Iterations 3
Time = 0.99

DILUPBiCG:  Solving for T, Initial residual = 0.0086740751, Final residual = 2.948971e-08, No Iterations 4
DILUPBiCG:  Solving for T, Initial residual = 0.0085640828, Final residual = 6.9183471e-08, No Iterations 3
Time = 0.995

DILUPBiCG:  Solving for T, Initial residual = 0.0085539629, Final residual = 8.8054339e-07, No Iterations 3
DILUPBiCG:  Solving for T, Initial residual = 0.0071063297, Final residual = 6.6552514e-08, No Iterations 3
Time = 1

DILUPBiCG:  Solving for T, Initial residual = 0.0076483215, Final residual = 6.2127846e-07, No Iterations 3
DILUPBiCG:  Solving for T, Initial residual = 0.0082876491, Final residual = 4.046426e-08, No Iterations 3
Time = 1.005

DILUPBiCG:  Solving for T, Initial residual = 0.0082955578, Final residual = 3.2675418e-08, No Iterations 4
DILUPBiCG:  Solving for T, Initial residual = 0.008958709, Final residual = 7.4268881e-08, No Iterations 3
Time = 1.01

DILUPBiCG:  Solving for T, Initial residual = 0.0086402328, Final residual = 6.4235462e-07, No Iterations 3
DILUPBiCG:  Solving for T, Initial residual = 0.0076771796, Final residual = 6.5097549e-08, No Iterations 3
Time = 1.015

DILUPBiCG:  Solving for T, Initial residual = 0.0081932268, Final residual = 8.9861941e-07, No Iterations 3
DILUPBiCG:  Solving for T, Initial residual = 0.008777898, Final residual = 5.9927182e-08, No Iterations 3
Time = 1.02

DILUPBiCG:  Solving for T, Initial residual = 0.0085506388, Final residual = 3.3649155e-08, No Iterations 4
DILUPBiCG:  Solving for T, Initial residual = 0.0085496023, Final residual = 7.7071899e-08, No Iterations 3
Time = 1.025

DILUPBiCG:  Solving for T, Initial residual = 0.008553839, Final residual = 7.8331191e-07, No Iterations 3
DILUPBiCG:  Solving for T, Initial residual = 0.0079049884, Final residual = 9.4820606e-08, No Iterations 3
Time = 1.03

DILUPBiCG:  Solving for T, Initial residual = 0.0081703378, Final residual = 2.6296821e-08, No Iterations 4
DILUPBiCG:  Solving for T, Initial residual = 0.008286049, Final residual = 1.1084061e-07, No Iterations 3
Time = 1.035

DILUPBiCG:  Solving for T, Initial residual = 0.0081854614, Final residual = 7.8852495e-07, No Iterations 3
DILUPBiCG:  Solving for T, Initial residual = 0.0083199659, Final residual = 5.2986096e-08, No Iterations 3
Time = 1.04

DILUPBiCG:  Solving for T, Initial residual = 0.0084450332, Final residual = 8.4222542e-07, No Iterations 3
DILUPBiCG:  Solving for T, Initial residual = 0.008581127, Final residual = 9.5925075e-08, No Iterations 3
Time = 1.045

DILUPBiCG:  Solving for T, Initial residual = 0.0086999193, Final residual = 2.7964411e-08, No Iterations 4
DILUPBiCG:  Solving for T, Initial residual = 0.0086127213, Final residual = 8.2071562e-08, No Iterations 3
Time = 1.05

DILUPBiCG:  Solving for T, Initial residual = 0.0088680824, Final residual = 3.271941e-08, No Iterations 4
DILUPBiCG:  Solving for T, Initial residual = 0.0086365952, Final residual = 5.135875e-08, No Iterations 3
Time = 1.055

DILUPBiCG:  Solving for T, Initial residual = 0.008507226, Final residual = 7.5454488e-07, No Iterations 3
DILUPBiCG:  Solving for T, Initial residual = 0.0077702329, Final residual = 5.2716022e-08, No Iterations 3
Time = 1.06

DILUPBiCG:  Solving for T, Initial residual = 0.0081483085, Final residual = 2.842341e-08, No Iterations 4
DILUPBiCG:  Solving for T, Initial residual = 0.0085543622, Final residual = 4.4695334e-08, No Iterations 3
Time = 1.065

DILUPBiCG:  Solving for T, Initial residual = 0.0084844682, Final residual = 2.7802867e-08, No Iterations 4
DILUPBiCG:  Solving for T, Initial residual = 0.0089075717, Final residual = 5.501191e-08, No Iterations 3
Time = 1.07

DILUPBiCG:  Solving for T, Initial residual = 0.0088084428, Final residual = 8.5052471e-07, No Iterations 3
DILUPBiCG:  Solving for T, Initial residual = 0.0082927233, Final residual = 6.7332439e-08, No Iterations 3
Time = 1.075

DILUPBiCG:  Solving for T, Initial residual = 0.0085621893, Final residual = 5.8421247e-07, No Iterations 3
DILUPBiCG:  Solving for T, Initial residual = 0.0086288163, Final residual = 5.3591668e-08, No Iterations 3
Time = 1.08

DILUPBiCG:  Solving for T, Initial residual = 0.0086281405, Final residual = 2.8798783e-08, No Iterations 4
DILUPBiCG:  Solving for T, Initial residual = 0.0089646315, Final residual = 9.1965398e-08, No Iterations 3
Time = 1.085

DILUPBiCG:  Solving for T, Initial residual = 0.0087755498, Final residual = 6.2917675e-07, No Iterations 3
DILUPBiCG:  Solving for T, Initial residual = 0.008541464, Final residual = 8.3736336e-08, No Iterations 3
Time = 1.09

DILUPBiCG:  Solving for T, Initial residual = 0.00877772, Final residual = 1.4363592e-07, No Iterations 4
DILUPBiCG:  Solving for T, Initial residual = 0.0090502732, Final residual = 9.7211162e-08, No Iterations 3
Time = 1.095

DILUPBiCG:  Solving for T, Initial residual = 0.0087262983, Final residual = 7.2523746e-07, No Iterations 3
DILUPBiCG:  Solving for T, Initial residual = 0.0077075122, Final residual = 6.6899217e-08, No Iterations 3
Time = 1.1

DILUPBiCG:  Solving for T, Initial residual = 0.0082024594, Final residual = 7.0089044e-07, No Iterations 3
DILUPBiCG:  Solving for T, Initial residual = 0.0088199134, Final residual = 6.6321353e-08, No Iterations 3
Time = 1.105

DILUPBiCG:  Solving for T, Initial residual = 0.0085885605, Final residual = 5.8070673e-07, No Iterations 3
DILUPBiCG:  Solving for T, Initial residual = 0.0075093278, Final residual = 4.9642602e-08, No Iterations 3
Time = 1.11

DILUPBiCG:  Solving for T, Initial residual = 0.0082957866, Final residual = 3.0799214e-08, No Iterations 4
DILUPBiCG:  Solving for T, Initial residual = 0.0095379205, Final residual = 6.7768292e-08, No Iterations 3
Time = 1.115

DILUPBiCG:  Solving for T, Initial residual = 0.0089377048, Final residual = 7.0493361e-07, No Iterations 3
DILUPBiCG:  Solving for T, Initial residual = 0.0078784938, Final residual = 5.9239637e-08, No Iterations 3
Time = 1.12

DILUPBiCG:  Solving for T, Initial residual = 0.008440268, Final residual = 7.4693378e-07, No Iterations 3
DILUPBiCG:  Solving for T, Initial residual = 0.0085648338, Final residual = 7.2648008e-08, No Iterations 3
Time = 1.125

DILUPBiCG:  Solving for T, Initial residual = 0.008562102, Final residual = 6.5026943e-07, No Iterations 3
DILUPBiCG:  Solving for T, Initial residual = 0.0083628995, Final residual = 3.2844432e-07, No Iterations 3
Time = 1.13

DILUPBiCG:  Solving for T, Initial residual = 0.0086820457, Final residual = 8.9126959e-07, No Iterations 3
DILUPBiCG:  Solving for T, Initial residual = 0.0095456007, Final residual = 2.0039291e-07, No Iterations 3
Time = 1.135

DILUPBiCG:  Solving for T, Initial residual = 0.0089965403, Final residual = 5.2917075e-07, No Iterations 3
DILUPBiCG:  Solving for T, Initial residual = 0.0072543002, Final residual = 7.3886333e-08, No Iterations 3
Time = 1.14

DILUPBiCG:  Solving for T, Initial residual = 0.0081543526, Final residual = 9.7816972e-07, No Iterations 3
DILUPBiCG:  Solving for T, Initial residual = 0.0090978229, Final residual = 6.0126542e-08, No Iterations 3
Time = 1.145

DILUPBiCG:  Solving for T, Initial residual = 0.0088571751, Final residual = 7.6891009e-07, No Iterations 3
DILUPBiCG:  Solving for T, Initial residual = 0.0087312575, Final residual = 4.8593823e-08, No Iterations 3
Time = 1.15

DILUPBiCG:  Solving for T, Initial residual = 0.0088362977, Final residual = 9.2977873e-07, No Iterations 3
DILUPBiCG:  Solving for T, Initial residual = 0.0086780202, Final residual = 8.9110216e-08, No Iterations 3
Time = 1.155

DILUPBiCG:  Solving for T, Initial residual = 0.0086516974, Final residual = 6.3297898e-07, No Iterations 3
DILUPBiCG:  Solving for T, Initial residual = 0.0077730232, Final residual = 5.8155661e-08, No Iterations 3
Time = 1.16

DILUPBiCG:  Solving for T, Initial residual = 0.0083634493, Final residual = 2.5681597e-08, No Iterations 4
DILUPBiCG:  Solving for T, Initial residual = 0.0088752575, Final residual = 4.2046339e-08, No Iterations 3
Time = 1.165

DILUPBiCG:  Solving for T, Initial residual = 0.0087207726, Final residual = 3.006714e-08, No Iterations 4
DILUPBiCG:  Solving for T, Initial residual = 0.0090971361, Final residual = 1.7298517e-07, No Iterations 3
Time = 1.17

DILUPBiCG:  Solving for T, Initial residual = 0.0090661135, Final residual = 9.1373661e-07, No Iterations 3
DILUPBiCG:  Solving for T, Initial residual = 0.0082088565, Final residual = 6.5841332e-08, No Iterations 3
Time = 1.175

DILUPBiCG:  Solving for T, Initial residual = 0.0084126897, Final residual = 6.8450552e-07, No Iterations 3
DILUPBiCG:  Solving for T, Initial residual = 0.0081502558, Final residual = 7.3148217e-08, No Iterations 3
Time = 1.18

DILUPBiCG:  Solving for T, Initial residual = 0.0084405864, Final residual = 7.8961233e-07, No Iterations 3
DILUPBiCG:  Solving for T, Initial residual = 0.0091744247, Final residual = 8.7724546e-08, No Iterations 3
Time = 1.185

DILUPBiCG:  Solving for T, Initial residual = 0.0089013547, Final residual = 7.0479799e-07, No Iterations 3
DILUPBiCG:  Solving for T, Initial residual = 0.0084783022, Final residual = 4.9275813e-08, No Iterations 3
Time = 1.19

DILUPBiCG:  Solving for T, Initial residual = 0.0087791398, Final residual = 7.6005342e-07, No Iterations 3
DILUPBiCG:  Solving for T, Initial residual = 0.0091423616, Final residual = 4.1237393e-08, No Iterations 3
Time = 1.195

DILUPBiCG:  Solving for T, Initial residual = 0.0090576205, Final residual = 2.9275902e-08, No Iterations 4
DILUPBiCG:  Solving for T, Initial residual = 0.0082341618, Final residual = 5.3494258e-08, No Iterations 3
Time = 1.2

DILUPBiCG:  Solving for T, Initial residual = 0.0084616018, Final residual = 5.4284906e-07, No Iterations 3
DILUPBiCG:  Solving for T, Initial residual = 0.0082788564, Final residual = 5.5843442e-08, No Iterations 3
Time = 1.205

DILUPBiCG:  Solving for T, Initial residual = 0.0087028673, Final residual = 9.7349426e-07, No Iterations 3
DILUPBiCG:  Solving for T, Initial residual = 0.0094830181, Final residual = 2.4442408e-07, No Iterations 3
Time = 1.21

DILUPBiCG:  Solving for T, Initial residual = 0.0090347615, Final residual = 7.6566127e-07, No Iterations 3
DILUPBiCG:  Solving for T, Initial residual = 0.0076511822, Final residual = 7.4106346e-08, No Iterations 3
Time = 1.215

DILUPBiCG:  Solving for T, Initial residual = 0.0080911659, Final residual = 6.0021374e-07, No Iterations 3
DILUPBiCG:  Solving for T, Initial residual = 0.008151216, Final residual = 5.9522992e-08, No Iterations 3
Time = 1.22

DILUPBiCG:  Solving for T, Initial residual = 0.0083166093, Final residual = 8.9954753e-07, No Iterations 3
DILUPBiCG:  Solving for T, Initial residual = 0.0089939108, Final residual = 1.47044e-07, No Iterations 3
Time = 1.225

DILUPBiCG:  Solving for T, Initial residual = 0.0087745732, Final residual = 9.2681117e-07, No Iterations 3
DILUPBiCG:  Solving for T, Initial residual = 0.0086327669, Final residual = 4.9261822e-08, No Iterations 3
Time = 1.23

DILUPBiCG:  Solving for T, Initial residual = 0.0087878459, Final residual = 9.5956869e-07, No Iterations 3
DILUPBiCG:  Solving for T, Initial residual = 0.0089990794, Final residual = 4.7938754e-08, No Iterations 3
Time = 1.235

DILUPBiCG:  Solving for T, Initial residual = 0.009032224, Final residual = 7.2125425e-07, No Iterations 3
DILUPBiCG:  Solving for T, Initial residual = 0.0086149396, Final residual = 5.1152487e-08, No Iterations 3
Time = 1.24

DILUPBiCG:  Solving for T, Initial residual = 0.0090206795, Final residual = 7.352277e-07, No Iterations 3
DILUPBiCG:  Solving for T, Initial residual = 0.0083794778, Final residual = 6.3202656e-08, No Iterations 3
Time = 1.245

DILUPBiCG:  Solving for T, Initial residual = 0.0084710869, Final residual = 8.1244978e-07, No Iterations 3
DILUPBiCG:  Solving for T, Initial residual = 0.0084555639, Final residual = 1.0378187e-07, No Iterations 3
Time = 1.25

DILUPBiCG:  Solving for T, Initial residual = 0.008469623, Final residual = 9.3653703e-07, No Iterations 3
DILUPBiCG:  Solving for T, Initial residual = 0.008064278, Final residual = 4.8954173e-08, No Iterations 3
Time = 1.255

DILUPBiCG:  Solving for T, Initial residual = 0.0085824009, Final residual = 3.2366502e-08, No Iterations 4
DILUPBiCG:  Solving for T, Initial residual = 0.0098063034, Final residual = 1.3490983e-07, No Iterations 3
Time = 1.26

DILUPBiCG:  Solving for T, Initial residual = 0.0092536597, Final residual = 6.4389799e-07, No Iterations 3
DILUPBiCG:  Solving for T, Initial residual = 0.0073510981, Final residual = 6.1438472e-08, No Iterations 3
Time = 1.265

DILUPBiCG:  Solving for T, Initial residual = 0.0080706846, Final residual = 7.5630854e-07, No Iterations 3
DILUPBiCG:  Solving for T, Initial residual = 0.0092413198, Final residual = 7.6110743e-07, No Iterations 3
Time = 1.27

DILUPBiCG:  Solving for T, Initial residual = 0.0089021055, Final residual = 8.5206034e-07, No Iterations 3
DILUPBiCG:  Solving for T, Initial residual = 0.0080854529, Final residual = 5.0162965e-08, No Iterations 3
Time = 1.275

DILUPBiCG:  Solving for T, Initial residual = 0.0083585361, Final residual = 7.9962818e-07, No Iterations 3
DILUPBiCG:  Solving for T, Initial residual = 0.0086641346, Final residual = 4.3293784e-08, No Iterations 3
Time = 1.28

DILUPBiCG:  Solving for T, Initial residual = 0.0087417838, Final residual = 8.3080199e-07, No Iterations 3
DILUPBiCG:  Solving for T, Initial residual = 0.0081854344, Final residual = 5.2214875e-08, No Iterations 3
Time = 1.285

DILUPBiCG:  Solving for T, Initial residual = 0.0085087036, Final residual = 7.8030583e-07, No Iterations 3
DILUPBiCG:  Solving for T, Initial residual = 0.0084637262, Final residual = 4.0290132e-08, No Iterations 3
Time = 1.29

DILUPBiCG:  Solving for T, Initial residual = 0.0087223607, Final residual = 3.5242689e-08, No Iterations 4
DILUPBiCG:  Solving for T, Initial residual = 0.0096586583, Final residual = 1.5937111e-07, No Iterations 3
Time = 1.295

DILUPBiCG:  Solving for T, Initial residual = 0.0091848867, Final residual = 7.6333805e-07, No Iterations 3
DILUPBiCG:  Solving for T, Initial residual = 0.0077050915, Final residual = 4.8775386e-08, No Iterations 3
Time = 1.3

DILUPBiCG:  Solving for T, Initial residual = 0.0085064238, Final residual = 7.7101161e-07, No Iterations 3
DILUPBiCG:  Solving for T, Initial residual = 0.0087951318, Final residual = 4.4759332e-08, No Iterations 3
Time = 1.305

DILUPBiCG:  Solving for T, Initial residual = 0.0088634767, Final residual = 9.3733095e-07, No Iterations 3
DILUPBiCG:  Solving for T, Initial residual = 0.0088762904, Final residual = 5.1755103e-08, No Iterations 3
Time = 1.31

DILUPBiCG:  Solving for T, Initial residual = 0.0090361689, Final residual = 8.4886553e-07, No Iterations 3
DILUPBiCG:  Solving for T, Initial residual = 0.0086690821, Final residual = 5.1369304e-08, No Iterations 3
Time = 1.315

DILUPBiCG:  Solving for T, Initial residual = 0.008946454, Final residual = 9.0866247e-07, No Iterations 3
DILUPBiCG:  Solving for T, Initial residual = 0.008711992, Final residual = 6.772229e-08, No Iterations 3
Time = 1.32

DILUPBiCG:  Solving for T, Initial residual = 0.0089335498, Final residual = 6.4523174e-07, No Iterations 3
DILUPBiCG:  Solving for T, Initial residual = 0.0082228668, Final residual = 7.1704361e-08, No Iterations 3
Time = 1.325

DILUPBiCG:  Solving for T, Initial residual = 0.0085429173, Final residual = 7.2883568e-07, No Iterations 3
DILUPBiCG:  Solving for T, Initial residual = 0.0087399345, Final residual = 4.803845e-08, No Iterations 3
Time = 1.33

DILUPBiCG:  Solving for T, Initial residual = 0.0086634547, Final residual = 8.9693331e-07, No Iterations 3
DILUPBiCG:  Solving for T, Initial residual = 0.0086375701, Final residual = 6.1076181e-08, No Iterations 3
Time = 1.335

DILUPBiCG:  Solving for T, Initial residual = 0.0087070631, Final residual = 8.6542345e-07, No Iterations 3
DILUPBiCG:  Solving for T, Initial residual = 0.0084077684, Final residual = 4.9641277e-08, No Iterations 3
Time = 1.34

DILUPBiCG:  Solving for T, Initial residual = 0.0086534614, Final residual = 8.4499816e-07, No Iterations 3
DILUPBiCG:  Solving for T, Initial residual = 0.0092133006, Final residual = 5.1773436e-08, No Iterations 3
Time = 1.345

DILUPBiCG:  Solving for T, Initial residual = 0.0091882048, Final residual = 2.9682695e-08, No Iterations 4
DILUPBiCG:  Solving for T, Initial residual = 0.0083558114, Final residual = 5.2348598e-08, No Iterations 3
Time = 1.35

DILUPBiCG:  Solving for T, Initial residual = 0.008719616, Final residual = 7.8998798e-07, No Iterations 3
DILUPBiCG:  Solving for T, Initial residual = 0.0091286677, Final residual = 5.0430777e-08, No Iterations 3
Time = 1.355

DILUPBiCG:  Solving for T, Initial residual = 0.0089866391, Final residual = 8.4160037e-07, No Iterations 3
DILUPBiCG:  Solving for T, Initial residual = 0.008281771, Final residual = 6.1425061e-08, No Iterations 3
Time = 1.36

DILUPBiCG:  Solving for T, Initial residual = 0.0087388136, Final residual = 7.9452093e-07, No Iterations 3
DILUPBiCG:  Solving for T, Initial residual = 0.0088072718, Final residual = 7.1889971e-08, No Iterations 3
Time = 1.365

DILUPBiCG:  Solving for T, Initial residual = 0.0089386872, Final residual = 2.869022e-08, No Iterations 4
DILUPBiCG:  Solving for T, Initial residual = 0.0090062349, Final residual = 5.0093122e-08, No Iterations 3
Time = 1.37

DILUPBiCG:  Solving for T, Initial residual = 0.0089211641, Final residual = 5.5305186e-07, No Iterations 3
DILUPBiCG:  Solving for T, Initial residual = 0.0077650833, Final residual = 7.0061286e-08, No Iterations 3
Time = 1.375

DILUPBiCG:  Solving for T, Initial residual = 0.0084960223, Final residual = 2.8425361e-08, No Iterations 4
DILUPBiCG:  Solving for T, Initial residual = 0.0091027319, Final residual = 4.4713528e-08, No Iterations 3
Time = 1.38

DILUPBiCG:  Solving for T, Initial residual = 0.0089661484, Final residual = 8.633086e-07, No Iterations 3
DILUPBiCG:  Solving for T, Initial residual = 0.0083967189, Final residual = 9.0551725e-08, No Iterations 3
Time = 1.385

DILUPBiCG:  Solving for T, Initial residual = 0.0086941277, Final residual = 7.4733462e-07, No Iterations 3
DILUPBiCG:  Solving for T, Initial residual = 0.0083538476, Final residual = 9.6031484e-08, No Iterations 3
Time = 1.39

DILUPBiCG:  Solving for T, Initial residual = 0.0085597209, Final residual = 8.2646732e-07, No Iterations 3
DILUPBiCG:  Solving for T, Initial residual = 0.0086516114, Final residual = 4.2037319e-08, No Iterations 3
Time = 1.395

DILUPBiCG:  Solving for T, Initial residual = 0.0086271757, Final residual = 7.6448095e-07, No Iterations 3
DILUPBiCG:  Solving for T, Initial residual = 0.0086401755, Final residual = 3.7401501e-08, No Iterations 3
Time = 1.4

DILUPBiCG:  Solving for T, Initial residual = 0.0088700931, Final residual = 9.7765241e-07, No Iterations 3
DILUPBiCG:  Solving for T, Initial residual = 0.0093429974, Final residual = 5.918163e-08, No Iterations 3
Time = 1.405

DILUPBiCG:  Solving for T, Initial residual = 0.0092233401, Final residual = 9.3735552e-07, No Iterations 3
DILUPBiCG:  Solving for T, Initial residual = 0.0077755208, Final residual = 6.7382494e-08, No Iterations 3
Time = 1.41

DILUPBiCG:  Solving for T, Initial residual = 0.0084046435, Final residual = 2.463233e-08, No Iterations 4
DILUPBiCG:  Solving for T, Initial residual = 0.0086965597, Final residual = 4.9031061e-08, No Iterations 3
Time = 1.415

DILUPBiCG:  Solving for T, Initial residual = 0.0087388764, Final residual = 3.1831323e-08, No Iterations 4
DILUPBiCG:  Solving for T, Initial residual = 0.0089712325, Final residual = 7.1293976e-08, No Iterations 3
Time = 1.42

DILUPBiCG:  Solving for T, Initial residual = 0.008802897, Final residual = 7.3491124e-07, No Iterations 3
DILUPBiCG:  Solving for T, Initial residual = 0.0083363969, Final residual = 6.0179761e-08, No Iterations 3
Time = 1.425

DILUPBiCG:  Solving for T, Initial residual = 0.0085102711, Final residual = 8.0062389e-07, No Iterations 3
DILUPBiCG:  Solving for T, Initial residual = 0.0083785911, Final residual = 6.1842036e-08, No Iterations 3
Time = 1.43

DILUPBiCG:  Solving for T, Initial residual = 0.0084446018, Final residual = 6.8891352e-07, No Iterations 3
DILUPBiCG:  Solving for T, Initial residual = 0.0073843489, Final residual = 6.8425464e-08, No Iterations 3
Time = 1.435

DILUPBiCG:  Solving for T, Initial residual = 0.0079492358, Final residual = 2.5780822e-08, No Iterations 4
DILUPBiCG:  Solving for T, Initial residual = 0.0088657051, Final residual = 5.1591189e-08, No Iterations 3
Time = 1.44

DILUPBiCG:  Solving for T, Initial residual = 0.0085947386, Final residual = 9.5629406e-07, No Iterations 3
DILUPBiCG:  Solving for T, Initial residual = 0.0084271061, Final residual = 4.2110554e-08, No Iterations 3
Time = 1.445

DILUPBiCG:  Solving for T, Initial residual = 0.0085588958, Final residual = 7.4793355e-07, No Iterations 3
DILUPBiCG:  Solving for T, Initial residual = 0.0089114249, Final residual = 6.3411276e-08, No Iterations 3
Time = 1.45

DILUPBiCG:  Solving for T, Initial residual = 0.0089462608, Final residual = 3.3797284e-08, No Iterations 4
DILUPBiCG:  Solving for T, Initial residual = 0.0085532861, Final residual = 6.3986489e-08, No Iterations 3
Time = 1.455

DILUPBiCG:  Solving for T, Initial residual = 0.0086267164, Final residual = 6.2826336e-07, No Iterations 3
DILUPBiCG:  Solving for T, Initial residual = 0.0083815753, Final residual = 5.3734949e-08, No Iterations 3
Time = 1.46

DILUPBiCG:  Solving for T, Initial residual = 0.0085336896, Final residual = 7.3587862e-07, No Iterations 3
DILUPBiCG:  Solving for T, Initial residual = 0.0083882649, Final residual = 5.3784074e-08, No Iterations 3
Time = 1.465

DILUPBiCG:  Solving for T, Initial residual = 0.0084057333, Final residual = 9.3448928e-07, No Iterations 3
DILUPBiCG:  Solving for T, Initial residual = 0.0085739789, Final residual = 1.0538213e-07, No Iterations 3
Time = 1.47

DILUPBiCG:  Solving for T, Initial residual = 0.0087158832, Final residual = 8.2638308e-07, No Iterations 3
DILUPBiCG:  Solving for T, Initial residual = 0.0088328969, Final residual = 5.4086176e-08, No Iterations 3
Time = 1.475

DILUPBiCG:  Solving for T, Initial residual = 0.0088564915, Final residual = 9.658188e-07, No Iterations 3
DILUPBiCG:  Solving for T, Initial residual = 0.0089543715, Final residual = 7.4102559e-08, No Iterations 3
Time = 1.48

DILUPBiCG:  Solving for T, Initial residual = 0.008897282, Final residual = 6.2535482e-07, No Iterations 3
DILUPBiCG:  Solving for T, Initial residual = 0.0079849264, Final residual = 6.439969e-08, No Iterations 3
Time = 1.485

DILUPBiCG:  Solving for T, Initial residual = 0.0082174771, Final residual = 9.7899329e-07, No Iterations 3
DILUPBiCG:  Solving for T, Initial residual = 0.0084800352, Final residual = 3.726006e-08, No Iterations 3
Time = 1.49

DILUPBiCG:  Solving for T, Initial residual = 0.0084216178, Final residual = 5.8253755e-07, No Iterations 3
DILUPBiCG:  Solving for T, Initial residual = 0.0087228876, Final residual = 4.9701903e-08, No Iterations 3
Time = 1.495

DILUPBiCG:  Solving for T, Initial residual = 0.0087777188, Final residual = 9.1248531e-07, No Iterations 3
DILUPBiCG:  Solving for T, Initial residual = 0.0087997686, Final residual = 6.1025843e-08, No Iterations 3
Time = 1.5

DILUPBiCG:  Solving for T, Initial residual = 0.0089072207, Final residual = 8.78748e-07, No Iterations 3
DILUPBiCG:  Solving for T, Initial residual = 0.0084600948, Final residual = 5.532749e-08, No Iterations 3
Time = 1.505

DILUPBiCG:  Solving for T, Initial residual = 0.0085669373, Final residual = 9.9316182e-07, No Iterations 3
DILUPBiCG:  Solving for T, Initial residual = 0.0081916479, Final residual = 6.5895134e-08, No Iterations 3
Time = 1.51

DILUPBiCG:  Solving for T, Initial residual = 0.008540724, Final residual = 6.3553074e-07, No Iterations 3
DILUPBiCG:  Solving for T, Initial residual = 0.0082375054, Final residual = 4.3109784e-08, No Iterations 3
Time = 1.515

DILUPBiCG:  Solving for T, Initial residual = 0.0084627261, Final residual = 9.1566115e-07, No Iterations 3
DILUPBiCG:  Solving for T, Initial residual = 0.0090170741, Final residual = 1.3831372e-07, No Iterations 3
Time = 1.52

DILUPBiCG:  Solving for T, Initial residual = 0.0088041753, Final residual = 9.0798333e-07, No Iterations 3
DILUPBiCG:  Solving for T, Initial residual = 0.0080678993, Final residual = 7.2269122e-08, No Iterations 3
Time = 1.525

DILUPBiCG:  Solving for T, Initial residual = 0.0082677213, Final residual = 7.0105011e-07, No Iterations 3
DILUPBiCG:  Solving for T, Initial residual = 0.0086943469, Final residual = 6.4922933e-08, No Iterations 3
Time = 1.53

DILUPBiCG:  Solving for T, Initial residual = 0.0086697517, Final residual = 5.8521857e-07, No Iterations 3
DILUPBiCG:  Solving for T, Initial residual = 0.0085822662, Final residual = 4.9479896e-08, No Iterations 3
Time = 1.535

DILUPBiCG:  Solving for T, Initial residual = 0.0087368396, Final residual = 7.2638535e-07, No Iterations 3
DILUPBiCG:  Solving for T, Initial residual = 0.0090515536, Final residual = 5.364692e-08, No Iterations 3
Time = 1.54

DILUPBiCG:  Solving for T, Initial residual = 0.0089071624, Final residual = 7.0028694e-07, No Iterations 3
DILUPBiCG:  Solving for T, Initial residual = 0.0081123637, Final residual = 5.3338531e-08, No Iterations 3
Time = 1.545

DILUPBiCG:  Solving for T, Initial residual = 0.0085356512, Final residual = 8.4070099e-07, No Iterations 3
DILUPBiCG:  Solving for T, Initial residual = 0.0088009358, Final residual = 7.138037e-08, No Iterations 3
Time = 1.55

DILUPBiCG:  Solving for T, Initial residual = 0.0087458888, Final residual = 5.8757753e-07, No Iterations 3
DILUPBiCG:  Solving for T, Initial residual = 0.0081268434, Final residual = 5.5554738e-08, No Iterations 3
Time = 1.555

DILUPBiCG:  Solving for T, Initial residual = 0.0086070881, Final residual = 8.4821456e-07, No Iterations 3
DILUPBiCG:  Solving for T, Initial residual = 0.0088352112, Final residual = 6.197321e-08, No Iterations 3
Time = 1.56

DILUPBiCG:  Solving for T, Initial residual = 0.0087807204, Final residual = 7.1114106e-07, No Iterations 3
DILUPBiCG:  Solving for T, Initial residual = 0.0079250653, Final residual = 6.3706556e-08, No Iterations 3
Time = 1.565

DILUPBiCG:  Solving for T, Initial residual = 0.0083045934, Final residual = 8.076195e-07, No Iterations 3
DILUPBiCG:  Solving for T, Initial residual = 0.009062359, Final residual = 6.5541181e-08, No Iterations 3
Time = 1.57

DILUPBiCG:  Solving for T, Initial residual = 0.0087981806, Final residual = 6.2426691e-07, No Iterations 3
DILUPBiCG:  Solving for T, Initial residual = 0.008332796, Final residual = 4.8264849e-08, No Iterations 3
Time = 1.575

DILUPBiCG:  Solving for T, Initial residual = 0.0085210051, Final residual = 8.5596642e-07, No Iterations 3
DILUPBiCG:  Solving for T, Initial residual = 0.0083716038, Final residual = 4.1429195e-08, No Iterations 3
Time = 1.58

DILUPBiCG:  Solving for T, Initial residual = 0.0085280434, Final residual = 9.4779939e-07, No Iterations 3
DILUPBiCG:  Solving for T, Initial residual = 0.0088842839, Final residual = 9.45363e-08, No Iterations 3
Time = 1.585

DILUPBiCG:  Solving for T, Initial residual = 0.0087396834, Final residual = 8.6549024e-07, No Iterations 3
DILUPBiCG:  Solving for T, Initial residual = 0.0077395219, Final residual = 5.7639235e-08, No Iterations 3
Time = 1.59

DILUPBiCG:  Solving for T, Initial residual = 0.008150815, Final residual = 6.5269591e-07, No Iterations 3
DILUPBiCG:  Solving for T, Initial residual = 0.0082386506, Final residual = 3.9238691e-08, No Iterations 3
Time = 1.595

DILUPBiCG:  Solving for T, Initial residual = 0.0083878819, Final residual = 6.8033654e-07, No Iterations 3
DILUPBiCG:  Solving for T, Initial residual = 0.008445314, Final residual = 5.2009182e-08, No Iterations 3
Time = 1.6

DILUPBiCG:  Solving for T, Initial residual = 0.0085681213, Final residual = 7.2063068e-07, No Iterations 3
DILUPBiCG:  Solving for T, Initial residual = 0.0083534368, Final residual = 4.919174e-08, No Iterations 3
Time = 1.605

DILUPBiCG:  Solving for T, Initial residual = 0.0086588723, Final residual = 8.9745298e-07, No Iterations 3
DILUPBiCG:  Solving for T, Initial residual = 0.0089419219, Final residual = 5.8788854e-08, No Iterations 3
Time = 1.61

DILUPBiCG:  Solving for T, Initial residual = 0.0088831278, Final residual = 6.8200256e-07, No Iterations 3
DILUPBiCG:  Solving for T, Initial residual = 0.008354454, Final residual = 7.7220971e-08, No Iterations 3
Time = 1.615

DILUPBiCG:  Solving for T, Initial residual = 0.0085001094, Final residual = 7.0796281e-07, No Iterations 3
DILUPBiCG:  Solving for T, Initial residual = 0.0084158154, Final residual = 4.8039817e-08, No Iterations 3
Time = 1.62

DILUPBiCG:  Solving for T, Initial residual = 0.0084828147, Final residual = 5.6364892e-07, No Iterations 3
DILUPBiCG:  Solving for T, Initial residual = 0.0085058832, Final residual = 7.2840112e-08, No Iterations 3
Time = 1.625

DILUPBiCG:  Solving for T, Initial residual = 0.0086426026, Final residual = 8.0087377e-07, No Iterations 3
DILUPBiCG:  Solving for T, Initial residual = 0.0085824097, Final residual = 4.3414036e-08, No Iterations 3
Time = 1.63

DILUPBiCG:  Solving for T, Initial residual = 0.0086214232, Final residual = 7.4370664e-07, No Iterations 3
DILUPBiCG:  Solving for T, Initial residual = 0.0088097777, Final residual = 5.5575016e-08, No Iterations 3
Time = 1.635

DILUPBiCG:  Solving for T, Initial residual = 0.0088910363, Final residual = 7.550239e-07, No Iterations 3
DILUPBiCG:  Solving for T, Initial residual = 0.0078328232, Final residual = 5.171324e-08, No Iterations 3
Time = 1.64

DILUPBiCG:  Solving for T, Initial residual = 0.0083564335, Final residual = 9.1796636e-07, No Iterations 3
DILUPBiCG:  Solving for T, Initial residual = 0.0092164819, Final residual = 1.0152576e-07, No Iterations 3
Time = 1.645

DILUPBiCG:  Solving for T, Initial residual = 0.0088570016, Final residual = 7.976787e-07, No Iterations 3
DILUPBiCG:  Solving for T, Initial residual = 0.0080506352, Final residual = 5.6663439e-08, No Iterations 3
Time = 1.65

DILUPBiCG:  Solving for T, Initial residual = 0.0082558289, Final residual = 6.3457854e-07, No Iterations 3
DILUPBiCG:  Solving for T, Initial residual = 0.0084309287, Final residual = 5.9531753e-08, No Iterations 3
Time = 1.655

DILUPBiCG:  Solving for T, Initial residual = 0.0084616198, Final residual = 5.7203354e-07, No Iterations 3
DILUPBiCG:  Solving for T, Initial residual = 0.0089861895, Final residual = 4.3206509e-08, No Iterations 3
Time = 1.66

DILUPBiCG:  Solving for T, Initial residual = 0.0088819715, Final residual = 7.0258792e-07, No Iterations 3
DILUPBiCG:  Solving for T, Initial residual = 0.0088504622, Final residual = 6.0217726e-08, No Iterations 3
Time = 1.665

DILUPBiCG:  Solving for T, Initial residual = 0.0089107043, Final residual = 8.495452e-07, No Iterations 3
DILUPBiCG:  Solving for T, Initial residual = 0.0085080484, Final residual = 4.6062976e-08, No Iterations 3
Time = 1.67

DILUPBiCG:  Solving for T, Initial residual = 0.0087162055, Final residual = 6.8915209e-07, No Iterations 3
DILUPBiCG:  Solving for T, Initial residual = 0.0089308645, Final residual = 4.356353e-08, No Iterations 3
Time = 1.675

DILUPBiCG:  Solving for T, Initial residual = 0.0090423044, Final residual = 6.806358e-07, No Iterations 3
DILUPBiCG:  Solving for T, Initial residual = 0.0083819957, Final residual = 6.7598308e-08, No Iterations 3
Time = 1.68

DILUPBiCG:  Solving for T, Initial residual = 0.0087222809, Final residual = 3.1796912e-08, No Iterations 4
DILUPBiCG:  Solving for T, Initial residual = 0.0094479553, Final residual = 6.5054745e-08, No Iterations 3
Time = 1.685

DILUPBiCG:  Solving for T, Initial residual = 0.0091119428, Final residual = 6.858107e-07, No Iterations 3
DILUPBiCG:  Solving for T, Initial residual = 0.0080256436, Final residual = 5.60131e-08, No Iterations 3
Time = 1.69

DILUPBiCG:  Solving for T, Initial residual = 0.0085480319, Final residual = 9.217438e-07, No Iterations 3
DILUPBiCG:  Solving for T, Initial residual = 0.0083979037, Final residual = 5.3602636e-08, No Iterations 3
Time = 1.695

DILUPBiCG:  Solving for T, Initial residual = 0.0086965865, Final residual = 2.9250341e-08, No Iterations 4
DILUPBiCG:  Solving for T, Initial residual = 0.0090797954, Final residual = 4.3657638e-08, No Iterations 3
Time = 1.7

DILUPBiCG:  Solving for T, Initial residual = 0.0089546593, Final residual = 8.888089e-07, No Iterations 3
DILUPBiCG:  Solving for T, Initial residual = 0.0082335716, Final residual = 7.0162291e-08, No Iterations 3
Time = 1.705

DILUPBiCG:  Solving for T, Initial residual = 0.0085850031, Final residual = 7.4513064e-07, No Iterations 3
DILUPBiCG:  Solving for T, Initial residual = 0.0084423488, Final residual = 4.2739592e-08, No Iterations 3
Time = 1.71

DILUPBiCG:  Solving for T, Initial residual = 0.0086632276, Final residual = 9.8299365e-07, No Iterations 3
DILUPBiCG:  Solving for T, Initial residual = 0.0087927791, Final residual = 8.2773103e-08, No Iterations 3
Time = 1.715

DILUPBiCG:  Solving for T, Initial residual = 0.0087573203, Final residual = 8.7575197e-07, No Iterations 3
DILUPBiCG:  Solving for T, Initial residual = 0.0085633989, Final residual = 4.9077259e-08, No Iterations 3
Time = 1.72

DILUPBiCG:  Solving for T, Initial residual = 0.0087593998, Final residual = 3.1359007e-08, No Iterations 4
DILUPBiCG:  Solving for T, Initial residual = 0.0088696926, Final residual = 6.2654513e-08, No Iterations 3
Time = 1.725

[...]
Time = 4.57

DILUPBiCG:  Solving for T, Initial residual = 0.0085742543, Final residual = 7.0070935e-07, No Iterations 3
DILUPBiCG:  Solving for T, Initial residual = 0.0085114011, Final residual = 5.3126851e-08, No Iterations 3
Time = 4.575

DILUPBiCG:  Solving for T, Initial residual = 0.0086960244, Final residual = 5.9292072e-07, No Iterations 3
DILUPBiCG:  Solving for T, Initial residual = 0.0086505692, Final residual = 4.2415683e-08, No Iterations 3
Time = 4.58

DILUPBiCG:  Solving for T, Initial residual = 0.0088567, Final residual = 9.0402168e-07, No Iterations 3
DILUPBiCG:  Solving for T, Initial residual = 0.0090258384, Final residual = 4.5394244e-08, No Iterations 3
Time = 4.585

DILUPBiCG:  Solving for T, Initial residual = 0.0090556904, Final residual = 5.2869364e-07, No Iterations 3
DILUPBiCG:  Solving for T, Initial residual = 0.0077048424, Final residual = 5.5442527e-08, No Iterations 3
Time = 4.59

DILUPBiCG:  Solving for T, Initial residual = 0.0084342593, Final residual = 8.7176857e-07, No Iterations 3
DILUPBiCG:  Solving for T, Initial residual = 0.0093468181, Final residual = 6.1801606e-08, No Iterations 3
Time = 4.595

DILUPBiCG:  Solving for T, Initial residual = 0.0091082706, Final residual = 5.4391467e-07, No Iterations 3
DILUPBiCG:  Solving for T, Initial residual = 0.0080542877, Final residual = 6.0915634e-08, No Iterations 3
Time = 4.6

DILUPBiCG:  Solving for T, Initial residual = 0.0085570062, Final residual = 7.9616518e-07, No Iterations 3
DILUPBiCG:  Solving for T, Initial residual = 0.0088247264, Final residual = 5.9810036e-08, No Iterations 3
Time = 4.605

DILUPBiCG:  Solving for T, Initial residual = 0.0088301261, Final residual = 7.2076692e-07, No Iterations 3
DILUPBiCG:  Solving for T, Initial residual = 0.008522873, Final residual = 4.0765417e-08, No Iterations 3
Time = 4.61

DILUPBiCG:  Solving for T, Initial residual = 0.0087686691, Final residual = 7.8938977e-07, No Iterations 3
DILUPBiCG:  Solving for T, Initial residual = 0.0086788563, Final residual = 5.9227795e-08, No Iterations 3
Time = 4.615

DILUPBiCG:  Solving for T, Initial residual = 0.0089533278, Final residual = 7.3684537e-07, No Iterations 3
DILUPBiCG:  Solving for T, Initial residual = 0.008770083, Final residual = 4.1679379e-07, No Iterations 3
Time = 4.62

DILUPBiCG:  Solving for T, Initial residual = 0.0089448511, Final residual = 8.0316915e-07, No Iterations 3
DILUPBiCG:  Solving for T, Initial residual = 0.0086648405, Final residual = 4.3691081e-08, No Iterations 3
Time = 4.625

DILUPBiCG:  Solving for T, Initial residual = 0.0087761828, Final residual = 6.1605623e-07, No Iterations 3
DILUPBiCG:  Solving for T, Initial residual = 0.0083286984, Final residual = 5.1580511e-08, No Iterations 3
Time = 4.63

DILUPBiCG:  Solving for T, Initial residual = 0.008744736, Final residual = 2.9356977e-08, No Iterations 4
DILUPBiCG:  Solving for T, Initial residual = 0.0089550953, Final residual = 2.9821028e-07, No Iterations 3
Time = 4.635

DILUPBiCG:  Solving for T, Initial residual = 0.0089645035, Final residual = 8.6895509e-07, No Iterations 3
DILUPBiCG:  Solving for T, Initial residual = 0.0087797218, Final residual = 6.3103713e-08, No Iterations 3
Time = 4.64

DILUPBiCG:  Solving for T, Initial residual = 0.0089425277, Final residual = 7.4498495e-07, No Iterations 3
DILUPBiCG:  Solving for T, Initial residual = 0.008625859, Final residual = 6.8166536e-08, No Iterations 3
Time = 4.645

DILUPBiCG:  Solving for T, Initial residual = 0.0088609241, Final residual = 8.7734992e-07, No Iterations 3
DILUPBiCG:  Solving for T, Initial residual = 0.0083671082, Final residual = 5.7812862e-08, No Iterations 3
Time = 4.65

DILUPBiCG:  Solving for T, Initial residual = 0.0085013184, Final residual = 7.823312e-07, No Iterations 3
DILUPBiCG:  Solving for T, Initial residual = 0.0077142461, Final residual = 7.3421305e-08, No Iterations 3
Time = 4.655

DILUPBiCG:  Solving for T, Initial residual = 0.00813102, Final residual = 6.9341174e-07, No Iterations 3
DILUPBiCG:  Solving for T, Initial residual = 0.0084702158, Final residual = 5.6176103e-08, No Iterations 3
Time = 4.66

DILUPBiCG:  Solving for T, Initial residual = 0.0085411341, Final residual = 3.0224666e-08, No Iterations 4
DILUPBiCG:  Solving for T, Initial residual = 0.0091819584, Final residual = 7.3954219e-08, No Iterations 3
Time = 4.665

DILUPBiCG:  Solving for T, Initial residual = 0.0088431063, Final residual = 7.3592385e-07, No Iterations 3
DILUPBiCG:  Solving for T, Initial residual = 0.0087552957, Final residual = 6.3556652e-08, No Iterations 3
Time = 4.67

DILUPBiCG:  Solving for T, Initial residual = 0.0089242576, Final residual = 8.0383828e-07, No Iterations 3
DILUPBiCG:  Solving for T, Initial residual = 0.0087379418, Final residual = 7.2445464e-08, No Iterations 3
Time = 4.675

DILUPBiCG:  Solving for T, Initial residual = 0.0088003054, Final residual = 6.6149739e-07, No Iterations 3
DILUPBiCG:  Solving for T, Initial residual = 0.0079871466, Final residual = 5.4182362e-08, No Iterations 3
Time = 4.68

DILUPBiCG:  Solving for T, Initial residual = 0.0083538046, Final residual = 7.8750025e-07, No Iterations 3
DILUPBiCG:  Solving for T, Initial residual = 0.0085063286, Final residual = 4.6807111e-08, No Iterations 3
Time = 4.685

DILUPBiCG:  Solving for T, Initial residual = 0.0087198724, Final residual = 8.9122374e-07, No Iterations 3
DILUPBiCG:  Solving for T, Initial residual = 0.0089801057, Final residual = 7.0164296e-08, No Iterations 3
Time = 4.69

DILUPBiCG:  Solving for T, Initial residual = 0.0089130636, Final residual = 9.1940538e-07, No Iterations 3
DILUPBiCG:  Solving for T, Initial residual = 0.0083186487, Final residual = 6.0695944e-08, No Iterations 3
Time = 4.695

DILUPBiCG:  Solving for T, Initial residual = 0.0086038432, Final residual = 7.0335354e-07, No Iterations 3
DILUPBiCG:  Solving for T, Initial residual = 0.0085798085, Final residual = 6.1964886e-08, No Iterations 3
Time = 4.7

DILUPBiCG:  Solving for T, Initial residual = 0.0086729592, Final residual = 9.5610197e-07, No Iterations 3
DILUPBiCG:  Solving for T, Initial residual = 0.0086206568, Final residual = 9.815824e-08, No Iterations 3
Time = 4.705

DILUPBiCG:  Solving for T, Initial residual = 0.00874625, Final residual = 8.0948437e-07, No Iterations 3
DILUPBiCG:  Solving for T, Initial residual = 0.0087665307, Final residual = 5.2601042e-08, No Iterations 3
Time = 4.71

DILUPBiCG:  Solving for T, Initial residual = 0.0088913132, Final residual = 3.4149066e-08, No Iterations 4
DILUPBiCG:  Solving for T, Initial residual = 0.0084115173, Final residual = 5.8441366e-08, No Iterations 3
Time = 4.715

DILUPBiCG:  Solving for T, Initial residual = 0.0086822696, Final residual = 5.6313195e-07, No Iterations 3
DILUPBiCG:  Solving for T, Initial residual = 0.0080195547, Final residual = 5.7863153e-08, No Iterations 3
Time = 4.72

DILUPBiCG:  Solving for T, Initial residual = 0.008508423, Final residual = 3.5157565e-08, No Iterations 4
DILUPBiCG:  Solving for T, Initial residual = 0.0091463405, Final residual = 7.0775976e-08, No Iterations 3
Time = 4.725

DILUPBiCG:  Solving for T, Initial residual = 0.0088700832, Final residual = 5.474387e-07, No Iterations 3
DILUPBiCG:  Solving for T, Initial residual = 0.0075016459, Final residual = 4.6157711e-08, No Iterations 3
Time = 4.73

DILUPBiCG:  Solving for T, Initial residual = 0.0082550902, Final residual = 2.5925391e-08, No Iterations 4
DILUPBiCG:  Solving for T, Initial residual = 0.0092084215, Final residual = 5.3879285e-08, No Iterations 3
Time = 4.735

DILUPBiCG:  Solving for T, Initial residual = 0.008763012, Final residual = 2.7538819e-08, No Iterations 4
DILUPBiCG:  Solving for T, Initial residual = 0.0078621509, Final residual = 5.5057752e-08, No Iterations 3
Time = 4.74

DILUPBiCG:  Solving for T, Initial residual = 0.0082972342, Final residual = 5.9905017e-07, No Iterations 3
DILUPBiCG:  Solving for T, Initial residual = 0.0084895184, Final residual = 4.7422535e-08, No Iterations 3
Time = 4.745

DILUPBiCG:  Solving for T, Initial residual = 0.0086227922, Final residual = 8.4666848e-07, No Iterations 3
DILUPBiCG:  Solving for T, Initial residual = 0.0089635282, Final residual = 3.9346664e-08, No Iterations 3
Time = 4.75

DILUPBiCG:  Solving for T, Initial residual = 0.0089512062, Final residual = 3.4946291e-08, No Iterations 4
DILUPBiCG:  Solving for T, Initial residual = 0.0084526512, Final residual = 6.3397798e-08, No Iterations 3
Time = 4.755

DILUPBiCG:  Solving for T, Initial residual = 0.0085808985, Final residual = 7.4649933e-07, No Iterations 3
DILUPBiCG:  Solving for T, Initial residual = 0.0081826761, Final residual = 4.6707059e-08, No Iterations 3
Time = 4.76

DILUPBiCG:  Solving for T, Initial residual = 0.0084946191, Final residual = 9.3156925e-07, No Iterations 3
DILUPBiCG:  Solving for T, Initial residual = 0.0088281148, Final residual = 5.989417e-08, No Iterations 3
Time = 4.765

DILUPBiCG:  Solving for T, Initial residual = 0.0087539356, Final residual = 7.0827079e-07, No Iterations 3
DILUPBiCG:  Solving for T, Initial residual = 0.0080328204, Final residual = 6.6542315e-08, No Iterations 3
Time = 4.77

DILUPBiCG:  Solving for T, Initial residual = 0.0085280514, Final residual = 7.4515512e-07, No Iterations 3
DILUPBiCG:  Solving for T, Initial residual = 0.0081552296, Final residual = 4.4013343e-08, No Iterations 3
Time = 4.775

DILUPBiCG:  Solving for T, Initial residual = 0.0084691633, Final residual = 7.7411134e-07, No Iterations 3
DILUPBiCG:  Solving for T, Initial residual = 0.0090014276, Final residual = 4.158819e-08, No Iterations 3
Time = 4.78

DILUPBiCG:  Solving for T, Initial residual = 0.0087880381, Final residual = 6.4725792e-07, No Iterations 3
DILUPBiCG:  Solving for T, Initial residual = 0.0086317986, Final residual = 5.1125539e-08, No Iterations 3
Time = 4.785

DILUPBiCG:  Solving for T, Initial residual = 0.0087841261, Final residual = 8.6530245e-07, No Iterations 3
DILUPBiCG:  Solving for T, Initial residual = 0.0086339043, Final residual = 5.673235e-08, No Iterations 3
Time = 4.79

DILUPBiCG:  Solving for T, Initial residual = 0.0088024837, Final residual = 5.7272233e-07, No Iterations 3
DILUPBiCG:  Solving for T, Initial residual = 0.0077837911, Final residual = 6.7852109e-08, No Iterations 3
Time = 4.795

DILUPBiCG:  Solving for T, Initial residual = 0.008289941, Final residual = 7.2817135e-07, No Iterations 3
DILUPBiCG:  Solving for T, Initial residual = 0.0085443195, Final residual = 4.3758613e-08, No Iterations 3
Time = 4.8

DILUPBiCG:  Solving for T, Initial residual = 0.0085862327, Final residual = 7.2557391e-07, No Iterations 3
DILUPBiCG:  Solving for T, Initial residual = 0.0086417008, Final residual = 7.0833211e-08, No Iterations 3
Time = 4.805

DILUPBiCG:  Solving for T, Initial residual = 0.0087745222, Final residual = 7.3900169e-07, No Iterations 3
DILUPBiCG:  Solving for T, Initial residual = 0.0089067185, Final residual = 8.2830358e-08, No Iterations 3
Time = 4.81

DILUPBiCG:  Solving for T, Initial residual = 0.0088074187, Final residual = 7.6645473e-07, No Iterations 3
DILUPBiCG:  Solving for T, Initial residual = 0.0080157305, Final residual = 4.8641023e-08, No Iterations 3
Time = 4.815

DILUPBiCG:  Solving for T, Initial residual = 0.0085280916, Final residual = 8.5416432e-07, No Iterations 3
DILUPBiCG:  Solving for T, Initial residual = 0.0084622927, Final residual = 5.1228448e-08, No Iterations 3
Time = 4.82

DILUPBiCG:  Solving for T, Initial residual = 0.0086468504, Final residual = 6.109799e-07, No Iterations 3
DILUPBiCG:  Solving for T, Initial residual = 0.0088115015, Final residual = 5.8968355e-08, No Iterations 3
Time = 4.825

DILUPBiCG:  Solving for T, Initial residual = 0.0088811907, Final residual = 7.0989876e-07, No Iterations 3
DILUPBiCG:  Solving for T, Initial residual = 0.0085817819, Final residual = 8.9407133e-08, No Iterations 3
Time = 4.83

DILUPBiCG:  Solving for T, Initial residual = 0.0086734926, Final residual = 7.6588201e-07, No Iterations 3
DILUPBiCG:  Solving for T, Initial residual = 0.0090053112, Final residual = 6.4663725e-08, No Iterations 3
Time = 4.835

DILUPBiCG:  Solving for T, Initial residual = 0.0088331939, Final residual = 6.9689789e-07, No Iterations 3
DILUPBiCG:  Solving for T, Initial residual = 0.0081789851, Final residual = 5.9377738e-08, No Iterations 3
Time = 4.84

DILUPBiCG:  Solving for T, Initial residual = 0.0086006794, Final residual = 7.6058864e-07, No Iterations 3
DILUPBiCG:  Solving for T, Initial residual = 0.0088437134, Final residual = 4.1132826e-08, No Iterations 3
Time = 4.845

DILUPBiCG:  Solving for T, Initial residual = 0.0088175496, Final residual = 3.4350269e-08, No Iterations 4
DILUPBiCG:  Solving for T, Initial residual = 0.0091386902, Final residual = 6.5812771e-08, No Iterations 3
Time = 4.85

DILUPBiCG:  Solving for T, Initial residual = 0.0089941522, Final residual = 9.2294013e-07, No Iterations 3
DILUPBiCG:  Solving for T, Initial residual = 0.0080973465, Final residual = 7.0509446e-08, No Iterations 3
Time = 4.855

DILUPBiCG:  Solving for T, Initial residual = 0.0083892414, Final residual = 6.2914948e-07, No Iterations 3
DILUPBiCG:  Solving for T, Initial residual = 0.0078831584, Final residual = 6.9920473e-08, No Iterations 3
Time = 4.86

DILUPBiCG:  Solving for T, Initial residual = 0.0083608657, Final residual = 2.6106802e-08, No Iterations 4
DILUPBiCG:  Solving for T, Initial residual = 0.00893636, Final residual = 6.1197815e-08, No Iterations 3
Time = 4.865

DILUPBiCG:  Solving for T, Initial residual = 0.0088324965, Final residual = 6.6582285e-07, No Iterations 3
DILUPBiCG:  Solving for T, Initial residual = 0.0087167906, Final residual = 5.5342595e-08, No Iterations 3
Time = 4.87

DILUPBiCG:  Solving for T, Initial residual = 0.0088907488, Final residual = 7.3775398e-07, No Iterations 3
DILUPBiCG:  Solving for T, Initial residual = 0.0089953082, Final residual = 4.0776468e-08, No Iterations 3
Time = 4.875

DILUPBiCG:  Solving for T, Initial residual = 0.0089175121, Final residual = 7.6365659e-07, No Iterations 3
DILUPBiCG:  Solving for T, Initial residual = 0.0081851946, Final residual = 5.5143736e-08, No Iterations 3
Time = 4.88

DILUPBiCG:  Solving for T, Initial residual = 0.0086262904, Final residual = 3.2402545e-08, No Iterations 4
DILUPBiCG:  Solving for T, Initial residual = 0.0089522458, Final residual = 4.8366581e-08, No Iterations 3
Time = 4.885

DILUPBiCG:  Solving for T, Initial residual = 0.0088332511, Final residual = 4.8704705e-07, No Iterations 3
DILUPBiCG:  Solving for T, Initial residual = 0.007829256, Final residual = 4.8591086e-08, No Iterations 3
Time = 4.89

DILUPBiCG:  Solving for T, Initial residual = 0.008440382, Final residual = 6.6348798e-07, No Iterations 3
DILUPBiCG:  Solving for T, Initial residual = 0.0089957145, Final residual = 4.2013622e-08, No Iterations 3
Time = 4.895

DILUPBiCG:  Solving for T, Initial residual = 0.0088628361, Final residual = 8.0326014e-07, No Iterations 3
DILUPBiCG:  Solving for T, Initial residual = 0.0088443321, Final residual = 6.7945423e-08, No Iterations 3
Time = 4.9

DILUPBiCG:  Solving for T, Initial residual = 0.0089292043, Final residual = 8.7574877e-07, No Iterations 3
DILUPBiCG:  Solving for T, Initial residual = 0.0081816996, Final residual = 6.2785165e-08, No Iterations 3
Time = 4.905

DILUPBiCG:  Solving for T, Initial residual = 0.0084246446, Final residual = 8.3822055e-07, No Iterations 3
DILUPBiCG:  Solving for T, Initial residual = 0.0082649146, Final residual = 4.3580198e-08, No Iterations 3
Time = 4.91

DILUPBiCG:  Solving for T, Initial residual = 0.0085925103, Final residual = 2.9010292e-08, No Iterations 4
DILUPBiCG:  Solving for T, Initial residual = 0.0092817247, Final residual = 4.8874457e-08, No Iterations 3
Time = 4.915

DILUPBiCG:  Solving for T, Initial residual = 0.0090674084, Final residual = 7.0879112e-07, No Iterations 3
DILUPBiCG:  Solving for T, Initial residual = 0.0079396717, Final residual = 7.7185333e-08, No Iterations 3
Time = 4.92

DILUPBiCG:  Solving for T, Initial residual = 0.008329788, Final residual = 6.7850231e-07, No Iterations 3
DILUPBiCG:  Solving for T, Initial residual = 0.0076548096, Final residual = 5.3015343e-08, No Iterations 3
Time = 4.925

DILUPBiCG:  Solving for T, Initial residual = 0.0082234572, Final residual = 6.8920857e-07, No Iterations 3
DILUPBiCG:  Solving for T, Initial residual = 0.0092047735, Final residual = 8.3021988e-08, No Iterations 3
Time = 4.93

DILUPBiCG:  Solving for T, Initial residual = 0.0088846467, Final residual = 7.8773775e-07, No Iterations 3
DILUPBiCG:  Solving for T, Initial residual = 0.0085345774, Final residual = 5.6371675e-08, No Iterations 3
Time = 4.935

DILUPBiCG:  Solving for T, Initial residual = 0.0086279155, Final residual = 7.8182161e-07, No Iterations 3
DILUPBiCG:  Solving for T, Initial residual = 0.0088644035, Final residual = 5.3781418e-08, No Iterations 3
Time = 4.94

DILUPBiCG:  Solving for T, Initial residual = 0.0087951532, Final residual = 6.3457474e-07, No Iterations 3
DILUPBiCG:  Solving for T, Initial residual = 0.0077187611, Final residual = 6.6259015e-08, No Iterations 3
Time = 4.945

DILUPBiCG:  Solving for T, Initial residual = 0.0082714939, Final residual = 8.6719113e-07, No Iterations 3
DILUPBiCG:  Solving for T, Initial residual = 0.0092781993, Final residual = 5.3368534e-08, No Iterations 3
Time = 4.95

DILUPBiCG:  Solving for T, Initial residual = 0.009063912, Final residual = 3.792465e-08, No Iterations 4
DILUPBiCG:  Solving for T, Initial residual = 0.0082197678, Final residual = 6.3254399e-08, No Iterations 3
Time = 4.955

DILUPBiCG:  Solving for T, Initial residual = 0.0086474975, Final residual = 2.5872691e-08, No Iterations 4
DILUPBiCG:  Solving for T, Initial residual = 0.0082510193, Final residual = 7.9820057e-08, No Iterations 3
Time = 4.96

DILUPBiCG:  Solving for T, Initial residual = 0.0084874132, Final residual = 7.3705708e-07, No Iterations 3
DILUPBiCG:  Solving for T, Initial residual = 0.0087987596, Final residual = 7.9784241e-08, No Iterations 3
Time = 4.965

DILUPBiCG:  Solving for T, Initial residual = 0.0086615413, Final residual = 6.4573505e-07, No Iterations 3
DILUPBiCG:  Solving for T, Initial residual = 0.0085213433, Final residual = 5.3151436e-08, No Iterations 3
Time = 4.97

DILUPBiCG:  Solving for T, Initial residual = 0.0087699477, Final residual = 8.8890784e-07, No Iterations 3
DILUPBiCG:  Solving for T, Initial residual = 0.0092612766, Final residual = 6.4157698e-08, No Iterations 3
Time = 4.975

DILUPBiCG:  Solving for T, Initial residual = 0.008929888, Final residual = 7.0875875e-07, No Iterations 3
DILUPBiCG:  Solving for T, Initial residual = 0.0084636753, Final residual = 6.1742743e-08, No Iterations 3
Time = 4.98

DILUPBiCG:  Solving for T, Initial residual = 0.0087358581, Final residual = 7.5716412e-07, No Iterations 3
DILUPBiCG:  Solving for T, Initial residual = 0.0087336009, Final residual = 3.853277e-08, No Iterations 3
Time = 4.985

DILUPBiCG:  Solving for T, Initial residual = 0.008851399, Final residual = 7.1184682e-07, No Iterations 3
DILUPBiCG:  Solving for T, Initial residual = 0.0086219026, Final residual = 4.2275823e-08, No Iterations 3
Time = 4.99

DILUPBiCG:  Solving for T, Initial residual = 0.0086307754, Final residual = 3.413106e-08, No Iterations 4
DILUPBiCG:  Solving for T, Initial residual = 0.008887572, Final residual = 6.8538621e-08, No Iterations 3
Time = 4.995

DILUPBiCG:  Solving for T, Initial residual = 0.0088835706, Final residual = 7.3221039e-07, No Iterations 3
DILUPBiCG:  Solving for T, Initial residual = 0.0076248274, Final residual = 5.8729338e-08, No Iterations 3
Time = 5

DILUPBiCG:  Solving for T, Initial residual = 0.0082440152, Final residual = 5.8748395e-07, No Iterations 3
DILUPBiCG:  Solving for T, Initial residual = 0.0082381107, Final residual = 4.5468907e-08, No Iterations 3
End

