/*---------------------------------------------------------------------------*\
  =========                 |
  \\      /  F ield         | OpenFOAM: The Open Source CFD Toolbox
   \\    /   O peration     | Website:  https://openfoam.org
    \\  /    A nd           | Version:  9
     \\/     M anipulation  |
\*---------------------------------------------------------------------------*/
Build  : 9-710dba47639b
Exec   : scalarTransportFoam
Date   : May 10 2024
Time   : 14:40:59
Host   : "dyfluid-virtual-machine"
PID    : 963409
I/O    : uncollated
Case   : /home/dyfluid/case/one-muti
nProcs : 1
sigFpe : Enabling floating point exception trapping (FOAM_SIGFPE).
fileModificationChecking : Monitoring run-time modified files using timeStampMaster (fileModificationSkew 10)
allowSystemOperations : Allowing user-supplied system call operations

// * * * * * * * * * * * * * * * * * * * * * * * * * * * * * * * * * * * * * //
Create time

Create mesh for time = 0


SIMPLE: No convergence criteria found

Reading field T

Reading field U

Reading transportProperties

Reading diffusivity DT

Reading/calculating face flux field phi

No fvModels present
No fvConstraints present

Calculating scalar transport

Courant Number mean: 0.6 max: 0.6
Time = 0.005

DILUPBiCG:  Solving for T, Initial residual = 1, Final residual = 6.1099144e-07, No Iterations 4
DILUPBiCG:  Solving for T, Initial residual = 0.016756587, Final residual = 6.7010192e-08, No Iterations 3
Time = 0.01

DILUPBiCG:  Solving for T, Initial residual = 0.20532468, Final residual = 4.9891388e-08, No Iterations 4
DILUPBiCG:  Solving for T, Initial residual = 1.9681766e-06, Final residual = 6.3039737e-08, No Iterations 1
Time = 0.015

DILUPBiCG:  Solving for T, Initial residual = 0.11584741, Final residual = 9.0123674e-07, No Iterations 3
DILUPBiCG:  Solving for T, Initial residual = 1.6824169e-05, Final residual = 9.325964e-07, No Iterations 1
Time = 0.02

DILUPBiCG:  Solving for T, Initial residual = 0.080851095, Final residual = 3.3414042e-08, No Iterations 4
DILUPBiCG:  Solving for T, Initial residual = 0.006200979, Final residual = 4.4987261e-08, No Iterations 3
Time = 0.025

DILUPBiCG:  Solving for T, Initial residual = 0.062156828, Final residual = 8.0652792e-07, No Iterations 3
DILUPBiCG:  Solving for T, Initial residual = 0.021834972, Final residual = 9.8934802e-08, No Iterations 3
Time = 0.03

DILUPBiCG:  Solving for T, Initial residual = 0.050575071, Final residual = 8.7834454e-09, No Iterations 4
DILUPBiCG:  Solving for T, Initial residual = 0.010827939, Final residual = 4.1344674e-08, No Iterations 3
Time = 0.035

DILUPBiCG:  Solving for T, Initial residual = 0.042640062, Final residual = 7.3112728e-07, No Iterations 3
DILUPBiCG:  Solving for T, Initial residual = 0.0059424184, Final residual = 2.7087447e-08, No Iterations 3
Time = 0.04

DILUPBiCG:  Solving for T, Initial residual = 0.036920671, Final residual = 3.1452723e-07, No Iterations 3
DILUPBiCG:  Solving for T, Initial residual = 0.0033818087, Final residual = 9.9236005e-07, No Iterations 2
Time = 0.045

DILUPBiCG:  Solving for T, Initial residual = 0.032581396, Final residual = 1.806034e-07, No Iterations 3
DILUPBiCG:  Solving for T, Initial residual = 0.00288785, Final residual = 6.8635284e-07, No Iterations 2
Time = 0.05

DILUPBiCG:  Solving for T, Initial residual = 0.029141804, Final residual = 1.5081228e-07, No Iterations 3
DILUPBiCG:  Solving for T, Initial residual = 0.0033264996, Final residual = 9.3471837e-07, No Iterations 2
Time = 0.055

DILUPBiCG:  Solving for T, Initial residual = 0.026407269, Final residual = 1.4001901e-07, No Iterations 3
DILUPBiCG:  Solving for T, Initial residual = 0.0019422074, Final residual = 5.5205858e-07, No Iterations 2
Time = 0.06

DILUPBiCG:  Solving for T, Initial residual = 0.024152469, Final residual = 1.5364518e-07, No Iterations 3
DILUPBiCG:  Solving for T, Initial residual = 0.0010954288, Final residual = 3.3226628e-07, No Iterations 2
Time = 0.065

DILUPBiCG:  Solving for T, Initial residual = 0.022246341, Final residual = 1.3373751e-07, No Iterations 3
DILUPBiCG:  Solving for T, Initial residual = 0.0012144714, Final residual = 1.7332314e-08, No Iterations 3
Time = 0.07

DILUPBiCG:  Solving for T, Initial residual = 0.020643287, Final residual = 1.2507331e-07, No Iterations 3
DILUPBiCG:  Solving for T, Initial residual = 0.00075052902, Final residual = 2.9022074e-07, No Iterations 2
Time = 0.075

DILUPBiCG:  Solving for T, Initial residual = 0.019256153, Final residual = 1.1805833e-07, No Iterations 3
DILUPBiCG:  Solving for T, Initial residual = 0.00051509846, Final residual = 1.6533928e-07, No Iterations 2
Time = 0.08

DILUPBiCG:  Solving for T, Initial residual = 0.018045911, Final residual = 1.2188592e-07, No Iterations 3
DILUPBiCG:  Solving for T, Initial residual = 0.00089558196, Final residual = 2.2472266e-08, No Iterations 3
Time = 0.085

DILUPBiCG:  Solving for T, Initial residual = 0.016985863, Final residual = 1.1048297e-07, No Iterations 3
DILUPBiCG:  Solving for T, Initial residual = 0.00064323468, Final residual = 3.4043978e-07, No Iterations 2
Time = 0.09

DILUPBiCG:  Solving for T, Initial residual = 0.016053762, Final residual = 9.5991754e-08, No Iterations 3
DILUPBiCG:  Solving for T, Initial residual = 0.00044984331, Final residual = 1.9523715e-07, No Iterations 2
Time = 0.095

DILUPBiCG:  Solving for T, Initial residual = 0.015217942, Final residual = 9.6115068e-08, No Iterations 3
DILUPBiCG:  Solving for T, Initial residual = 0.00059457925, Final residual = 6.5999345e-07, No Iterations 2
Time = 0.1

DILUPBiCG:  Solving for T, Initial residual = 0.014462411, Final residual = 8.2651755e-08, No Iterations 3
DILUPBiCG:  Solving for T, Initial residual = 0.00049394761, Final residual = 5.216981e-09, No Iterations 3
Time = 0.105

DILUPBiCG:  Solving for T, Initial residual = 0.013796096, Final residual = 8.0492086e-08, No Iterations 3
DILUPBiCG:  Solving for T, Initial residual = 0.00034806746, Final residual = 1.7149586e-07, No Iterations 2
Time = 0.11

DILUPBiCG:  Solving for T, Initial residual = 0.013181566, Final residual = 9.0318143e-08, No Iterations 3
DILUPBiCG:  Solving for T, Initial residual = 0.00033812064, Final residual = 7.6196817e-09, No Iterations 3
Time = 0.115

DILUPBiCG:  Solving for T, Initial residual = 0.01261541, Final residual = 7.8838461e-08, No Iterations 3
DILUPBiCG:  Solving for T, Initial residual = 0.00038824215, Final residual = 8.9622552e-07, No Iterations 2
Time = 0.12

DILUPBiCG:  Solving for T, Initial residual = 0.012103933, Final residual = 7.0617269e-08, No Iterations 3
DILUPBiCG:  Solving for T, Initial residual = 0.00027897792, Final residual = 1.5783093e-07, No Iterations 2
Time = 0.125

DILUPBiCG:  Solving for T, Initial residual = 0.011635816, Final residual = 6.5030318e-08, No Iterations 3
DILUPBiCG:  Solving for T, Initial residual = 0.00019264026, Final residual = 1.3558779e-07, No Iterations 2
Time = 0.13

DILUPBiCG:  Solving for T, Initial residual = 0.011199826, Final residual = 6.6666978e-08, No Iterations 3
DILUPBiCG:  Solving for T, Initial residual = 0.00030858788, Final residual = 1.9131556e-08, No Iterations 3
Time = 0.135

DILUPBiCG:  Solving for T, Initial residual = 0.010794803, Final residual = 6.6263914e-08, No Iterations 3
DILUPBiCG:  Solving for T, Initial residual = 0.0002218304, Final residual = 5.9027667e-07, No Iterations 2
Time = 0.14

DILUPBiCG:  Solving for T, Initial residual = 0.010428005, Final residual = 5.7785743e-08, No Iterations 3
DILUPBiCG:  Solving for T, Initial residual = 0.00015329615, Final residual = 8.1134255e-08, No Iterations 2
Time = 0.145

DILUPBiCG:  Solving for T, Initial residual = 0.010081668, Final residual = 6.2942169e-08, No Iterations 3
DILUPBiCG:  Solving for T, Initial residual = 0.00025147672, Final residual = 4.1787829e-07, No Iterations 2
Time = 0.15

DILUPBiCG:  Solving for T, Initial residual = 0.0097535634, Final residual = 5.2514436e-08, No Iterations 3
DILUPBiCG:  Solving for T, Initial residual = 0.00018456956, Final residual = 7.0870524e-07, No Iterations 2
Time = 0.155

DILUPBiCG:  Solving for T, Initial residual = 0.0094524822, Final residual = 5.4337e-08, No Iterations 3
DILUPBiCG:  Solving for T, Initial residual = 0.0001320296, Final residual = 1.3636051e-07, No Iterations 2
Time = 0.16

DILUPBiCG:  Solving for T, Initial residual = 0.0091712077, Final residual = 5.176369e-08, No Iterations 3
DILUPBiCG:  Solving for T, Initial residual = 0.00019867418, Final residual = 6.2033945e-09, No Iterations 3
Time = 0.165

DILUPBiCG:  Solving for T, Initial residual = 0.0089034168, Final residual = 5.2319699e-08, No Iterations 3
DILUPBiCG:  Solving for T, Initial residual = 0.00016994466, Final residual = 3.8056468e-07, No Iterations 2
Time = 0.17

DILUPBiCG:  Solving for T, Initial residual = 0.0086500866, Final residual = 5.0623913e-08, No Iterations 3
DILUPBiCG:  Solving for T, Initial residual = 0.00012499004, Final residual = 9.277968e-08, No Iterations 2
Time = 0.175

DILUPBiCG:  Solving for T, Initial residual = 0.0084180914, Final residual = 4.9022097e-08, No Iterations 3
DILUPBiCG:  Solving for T, Initial residual = 0.00012390968, Final residual = 2.7087638e-07, No Iterations 2
Time = 0.18

DILUPBiCG:  Solving for T, Initial residual = 0.0081952217, Final residual = 4.7405328e-08, No Iterations 3
DILUPBiCG:  Solving for T, Initial residual = 0.00015307569, Final residual = 5.1973782e-07, No Iterations 2
Time = 0.185

DILUPBiCG:  Solving for T, Initial residual = 0.0079805448, Final residual = 4.5138682e-08, No Iterations 3
DILUPBiCG:  Solving for T, Initial residual = 0.0001136843, Final residual = 1.3404232e-07, No Iterations 2
Time = 0.19

DILUPBiCG:  Solving for T, Initial residual = 0.007781119, Final residual = 4.6383175e-08, No Iterations 3
DILUPBiCG:  Solving for T, Initial residual = 8.0934607e-05, Final residual = 1.281435e-07, No Iterations 2
Time = 0.195

DILUPBiCG:  Solving for T, Initial residual = 0.0075929481, Final residual = 4.6201732e-08, No Iterations 3
DILUPBiCG:  Solving for T, Initial residual = 0.00013628527, Final residual = 8.7091302e-07, No Iterations 2
Time = 0.2

DILUPBiCG:  Solving for T, Initial residual = 0.0074114892, Final residual = 4.3925468e-08, No Iterations 3
DILUPBiCG:  Solving for T, Initial residual = 0.0001024556, Final residual = 1.9515429e-07, No Iterations 2
Time = 0.205

DILUPBiCG:  Solving for T, Initial residual = 0.0072380413, Final residual = 4.2924722e-08, No Iterations 3
DILUPBiCG:  Solving for T, Initial residual = 7.4995129e-05, Final residual = 5.2652886e-08, No Iterations 2
Time = 0.21

DILUPBiCG:  Solving for T, Initial residual = 0.0070773621, Final residual = 4.1569994e-08, No Iterations 3
DILUPBiCG:  Solving for T, Initial residual = 0.00012433483, Final residual = 1.8048577e-07, No Iterations 2
Time = 0.215

DILUPBiCG:  Solving for T, Initial residual = 0.0069208323, Final residual = 3.9248673e-08, No Iterations 3
DILUPBiCG:  Solving for T, Initial residual = 9.5174991e-05, Final residual = 1.6022154e-07, No Iterations 2
Time = 0.22

DILUPBiCG:  Solving for T, Initial residual = 0.0067691276, Final residual = 3.9522917e-08, No Iterations 3
DILUPBiCG:  Solving for T, Initial residual = 7.1013416e-05, Final residual = 7.1585052e-08, No Iterations 2
Time = 0.225

DILUPBiCG:  Solving for T, Initial residual = 0.0066265841, Final residual = 4.0397912e-08, No Iterations 3
DILUPBiCG:  Solving for T, Initial residual = 9.3242508e-05, Final residual = 1.8205099e-07, No Iterations 2
Time = 0.23

DILUPBiCG:  Solving for T, Initial residual = 0.0064913195, Final residual = 3.7026536e-08, No Iterations 3
DILUPBiCG:  Solving for T, Initial residual = 9.1388338e-05, Final residual = 1.0019113e-07, No Iterations 2
Time = 0.235

DILUPBiCG:  Solving for T, Initial residual = 0.006359597, Final residual = 4.6918153e-08, No Iterations 3
DILUPBiCG:  Solving for T, Initial residual = 6.921161e-05, Final residual = 9.0699057e-08, No Iterations 2
Time = 0.24

DILUPBiCG:  Solving for T, Initial residual = 0.0062318845, Final residual = 3.6928489e-08, No Iterations 3
DILUPBiCG:  Solving for T, Initial residual = 5.8014088e-05, Final residual = 2.297894e-07, No Iterations 2
Time = 0.245

DILUPBiCG:  Solving for T, Initial residual = 0.0061129462, Final residual = 3.5718159e-08, No Iterations 3
DILUPBiCG:  Solving for T, Initial residual = 8.5111033e-05, Final residual = 1.0687192e-07, No Iterations 2
Time = 0.25

DILUPBiCG:  Solving for T, Initial residual = 0.0059968323, Final residual = 3.527643e-08, No Iterations 3
DILUPBiCG:  Solving for T, Initial residual = 6.5296945e-05, Final residual = 1.450765e-07, No Iterations 2
Time = 0.255

DILUPBiCG:  Solving for T, Initial residual = 0.0058829444, Final residual = 3.4707804e-08, No Iterations 3
DILUPBiCG:  Solving for T, Initial residual = 4.8641936e-05, Final residual = 4.6962404e-08, No Iterations 2
Time = 0.26

DILUPBiCG:  Solving for T, Initial residual = 0.0057749304, Final residual = 3.475117e-08, No Iterations 3
DILUPBiCG:  Solving for T, Initial residual = 8.0147502e-05, Final residual = 2.3781287e-07, No Iterations 2
Time = 0.265

DILUPBiCG:  Solving for T, Initial residual = 0.0056723894, Final residual = 3.7032403e-08, No Iterations 3
DILUPBiCG:  Solving for T, Initial residual = 6.259729e-05, Final residual = 1.8066826e-07, No Iterations 2
Time = 0.27

DILUPBiCG:  Solving for T, Initial residual = 0.0055717883, Final residual = 3.6469269e-08, No Iterations 3
DILUPBiCG:  Solving for T, Initial residual = 4.7734979e-05, Final residual = 3.62036e-08, No Iterations 2
Time = 0.275

DILUPBiCG:  Solving for T, Initial residual = 0.0054730878, Final residual = 3.4304403e-08, No Iterations 3
DILUPBiCG:  Solving for T, Initial residual = 7.4886855e-05, Final residual = 1.735569e-07, No Iterations 2
Time = 0.28

DILUPBiCG:  Solving for T, Initial residual = 0.0053805296, Final residual = 2.9618467e-08, No Iterations 3
DILUPBiCG:  Solving for T, Initial residual = 6.2195668e-05, Final residual = 2.6176019e-07, No Iterations 2
Time = 0.285

DILUPBiCG:  Solving for T, Initial residual = 0.0052900854, Final residual = 2.8526545e-08, No Iterations 3
DILUPBiCG:  Solving for T, Initial residual = 4.7698757e-05, Final residual = 6.3963061e-08, No Iterations 2
Time = 0.29

DILUPBiCG:  Solving for T, Initial residual = 0.0052009196, Final residual = 3.0324823e-08, No Iterations 3
DILUPBiCG:  Solving for T, Initial residual = 5.023738e-05, Final residual = 5.3398245e-08, No Iterations 2
Time = 0.295

DILUPBiCG:  Solving for T, Initial residual = 0.0051153468, Final residual = 3.1670977e-08, No Iterations 3
DILUPBiCG:  Solving for T, Initial residual = 5.901271e-05, Final residual = 9.5832786e-08, No Iterations 2
Time = 0.3

DILUPBiCG:  Solving for T, Initial residual = 0.0050339741, Final residual = 3.1183535e-08, No Iterations 3
DILUPBiCG:  Solving for T, Initial residual = 4.5453999e-05, Final residual = 6.829569e-08, No Iterations 2
Time = 0.305

DILUPBiCG:  Solving for T, Initial residual = 0.0049536506, Final residual = 2.8463838e-08, No Iterations 3
DILUPBiCG:  Solving for T, Initial residual = 3.4268016e-05, Final residual = 5.1603666e-07, No Iterations 2
Time = 0.31

DILUPBiCG:  Solving for T, Initial residual = 0.0048739763, Final residual = 2.9256657e-08, No Iterations 3
DILUPBiCG:  Solving for T, Initial residual = 5.5647649e-05, Final residual = 7.8863599e-08, No Iterations 2
Time = 0.315

DILUPBiCG:  Solving for T, Initial residual = 0.0047990233, Final residual = 2.7495729e-08, No Iterations 3
DILUPBiCG:  Solving for T, Initial residual = 4.3510489e-05, Final residual = 1.4679486e-07, No Iterations 2
Time = 0.32

DILUPBiCG:  Solving for T, Initial residual = 0.0047257161, Final residual = 2.6565267e-08, No Iterations 3
DILUPBiCG:  Solving for T, Initial residual = 3.2834311e-05, Final residual = 2.7172591e-08, No Iterations 2
Time = 0.325

DILUPBiCG:  Solving for T, Initial residual = 0.0046530257, Final residual = 2.6780775e-08, No Iterations 3
DILUPBiCG:  Solving for T, Initial residual = 5.2909513e-05, Final residual = 7.5770798e-08, No Iterations 2
Time = 0.33

DILUPBiCG:  Solving for T, Initial residual = 0.0045832586, Final residual = 2.6012051e-08, No Iterations 3
DILUPBiCG:  Solving for T, Initial residual = 4.2755866e-05, Final residual = 6.6949188e-08, No Iterations 2
Time = 0.335

DILUPBiCG:  Solving for T, Initial residual = 0.0045172061, Final residual = 2.5149124e-08, No Iterations 3
DILUPBiCG:  Solving for T, Initial residual = 3.3008805e-05, Final residual = 9.0183827e-08, No Iterations 2
Time = 0.34

DILUPBiCG:  Solving for T, Initial residual = 0.004451511, Final residual = 2.5197766e-08, No Iterations 3
DILUPBiCG:  Solving for T, Initial residual = 4.2184028e-05, Final residual = 6.8411341e-08, No Iterations 2
Time = 0.345

DILUPBiCG:  Solving for T, Initial residual = 0.004385837, Final residual = 2.4947945e-08, No Iterations 3
DILUPBiCG:  Solving for T, Initial residual = 4.2860546e-05, Final residual = 1.0572533e-07, No Iterations 2
Time = 0.35

DILUPBiCG:  Solving for T, Initial residual = 0.0043235452, Final residual = 2.3327053e-08, No Iterations 3
DILUPBiCG:  Solving for T, Initial residual = 3.2936474e-05, Final residual = 3.2430699e-08, No Iterations 2
Time = 0.355

DILUPBiCG:  Solving for T, Initial residual = 0.0042628686, Final residual = 2.2540382e-08, No Iterations 3
DILUPBiCG:  Solving for T, Initial residual = 2.7369581e-05, Final residual = 4.7862454e-08, No Iterations 2
Time = 0.36

DILUPBiCG:  Solving for T, Initial residual = 0.0042024325, Final residual = 2.3253124e-08, No Iterations 3
DILUPBiCG:  Solving for T, Initial residual = 4.0906102e-05, Final residual = 2.0115769e-07, No Iterations 2
Time = 0.365

DILUPBiCG:  Solving for T, Initial residual = 0.0041433756, Final residual = 2.4409262e-08, No Iterations 3
DILUPBiCG:  Solving for T, Initial residual = 3.2510977e-05, Final residual = 3.4077772e-08, No Iterations 2
Time = 0.37

DILUPBiCG:  Solving for T, Initial residual = 0.0040875649, Final residual = 2.450905e-08, No Iterations 3
DILUPBiCG:  Solving for T, Initial residual = 2.5316447e-05, Final residual = 2.6170181e-08, No Iterations 2
Time = 0.375

DILUPBiCG:  Solving for T, Initial residual = 0.0040320031, Final residual = 2.450024e-08, No Iterations 3
DILUPBiCG:  Solving for T, Initial residual = 4.0297118e-05, Final residual = 6.3890523e-08, No Iterations 2
Time = 0.38

DILUPBiCG:  Solving for T, Initial residual = 0.0039765756, Final residual = 2.3952189e-08, No Iterations 3
DILUPBiCG:  Solving for T, Initial residual = 3.3350727e-05, Final residual = 4.4258039e-08, No Iterations 2
Time = 0.385

DILUPBiCG:  Solving for T, Initial residual = 0.0039239554, Final residual = 2.242237e-08, No Iterations 3
DILUPBiCG:  Solving for T, Initial residual = 2.6697555e-05, Final residual = 2.3482906e-08, No Iterations 2
Time = 0.39

DILUPBiCG:  Solving for T, Initial residual = 0.0038726459, Final residual = 2.2672544e-08, No Iterations 3
DILUPBiCG:  Solving for T, Initial residual = 3.8149047e-05, Final residual = 9.6548345e-08, No Iterations 2
Time = 0.395

DILUPBiCG:  Solving for T, Initial residual = 0.0038212072, Final residual = 2.2587331e-08, No Iterations 3
DILUPBiCG:  Solving for T, Initial residual = 3.4758832e-05, Final residual = 9.6398345e-08, No Iterations 2
Time = 0.4

DILUPBiCG:  Solving for T, Initial residual = 0.0037701922, Final residual = 2.218179e-08, No Iterations 3
DILUPBiCG:  Solving for T, Initial residual = 2.7457195e-05, Final residual = 3.9566051e-08, No Iterations 2
Time = 0.405

DILUPBiCG:  Solving for T, Initial residual = 0.003721632, Final residual = 2.2947737e-08, No Iterations 3
DILUPBiCG:  Solving for T, Initial residual = 2.6843915e-05, Final residual = 5.3062496e-08, No Iterations 2
Time = 0.41

DILUPBiCG:  Solving for T, Initial residual = 0.0036731824, Final residual = 2.0703623e-08, No Iterations 3
DILUPBiCG:  Solving for T, Initial residual = 3.3719025e-05, Final residual = 6.9479753e-08, No Iterations 2
Time = 0.415

DILUPBiCG:  Solving for T, Initial residual = 0.0036248986, Final residual = 3.8781539e-08, No Iterations 3
DILUPBiCG:  Solving for T, Initial residual = 2.7334756e-05, Final residual = 3.6984904e-08, No Iterations 2
Time = 0.42

DILUPBiCG:  Solving for T, Initial residual = 0.0035781774, Final residual = 9.9103416e-07, No Iterations 2
DILUPBiCG:  Solving for T, Initial residual = 2.2205343e-05, Final residual = 2.4430856e-08, No Iterations 2
Time = 0.425

DILUPBiCG:  Solving for T, Initial residual = 0.0035326768, Final residual = 2.4650316e-08, No Iterations 3
DILUPBiCG:  Solving for T, Initial residual = 3.3019478e-05, Final residual = 1.1996655e-07, No Iterations 2
Time = 0.43

DILUPBiCG:  Solving for T, Initial residual = 0.0034872896, Final residual = 3.1240732e-08, No Iterations 3
DILUPBiCG:  Solving for T, Initial residual = 2.7121244e-05, Final residual = 1.1564652e-07, No Iterations 2
Time = 0.435

DILUPBiCG:  Solving for T, Initial residual = 0.0034420585, Final residual = 2.0244201e-08, No Iterations 3
DILUPBiCG:  Solving for T, Initial residual = 2.1249276e-05, Final residual = 7.7074141e-07, No Iterations 2
Time = 0.44

DILUPBiCG:  Solving for T, Initial residual = 0.0033990889, Final residual = 8.7531931e-07, No Iterations 2
DILUPBiCG:  Solving for T, Initial residual = 3.2850031e-05, Final residual = 4.6189009e-08, No Iterations 2
Time = 0.445

DILUPBiCG:  Solving for T, Initial residual = 0.0033560406, Final residual = 1.8324817e-08, No Iterations 3
DILUPBiCG:  Solving for T, Initial residual = 2.7042357e-05, Final residual = 9.638554e-07, No Iterations 1
Time = 0.45

DILUPBiCG:  Solving for T, Initial residual = 0.0033128219, Final residual = 8.6939391e-07, No Iterations 2
DILUPBiCG:  Solving for T, Initial residual = 2.2072904e-05, Final residual = 5.677305e-08, No Iterations 2
Time = 0.455

DILUPBiCG:  Solving for T, Initial residual = 0.0032713702, Final residual = 2.8049788e-08, No Iterations 3
DILUPBiCG:  Solving for T, Initial residual = 2.4281772e-05, Final residual = 1.1097339e-07, No Iterations 2
Time = 0.46

DILUPBiCG:  Solving for T, Initial residual = 0.0032311461, Final residual = 8.1532708e-07, No Iterations 2
DILUPBiCG:  Solving for T, Initial residual = 2.7706344e-05, Final residual = 4.7468175e-08, No Iterations 2
Time = 0.465

DILUPBiCG:  Solving for T, Initial residual = 0.0031907366, Final residual = 8.4671018e-07, No Iterations 2
DILUPBiCG:  Solving for T, Initial residual = 2.3059476e-05, Final residual = 7.1948691e-08, No Iterations 2
Time = 0.47

DILUPBiCG:  Solving for T, Initial residual = 0.0031502617, Final residual = 2.0384785e-08, No Iterations 3
DILUPBiCG:  Solving for T, Initial residual = 1.8540755e-05, Final residual = 6.5611742e-08, No Iterations 2
Time = 0.475

DILUPBiCG:  Solving for T, Initial residual = 0.0031113713, Final residual = 9.1887747e-07, No Iterations 2
DILUPBiCG:  Solving for T, Initial residual = 2.7404087e-05, Final residual = 6.4373609e-08, No Iterations 2
Time = 0.48

DILUPBiCG:  Solving for T, Initial residual = 0.0030726703, Final residual = 1.8432768e-08, No Iterations 3
DILUPBiCG:  Solving for T, Initial residual = 2.2446219e-05, Final residual = 2.3520169e-08, No Iterations 2
Time = 0.485

DILUPBiCG:  Solving for T, Initial residual = 0.0030337101, Final residual = 1.7886986e-08, No Iterations 3
DILUPBiCG:  Solving for T, Initial residual = 1.7933917e-05, Final residual = 9.839637e-07, No Iterations 1
Time = 0.49

DILUPBiCG:  Solving for T, Initial residual = 0.0029951277, Final residual = 1.7123165e-08, No Iterations 3
DILUPBiCG:  Solving for T, Initial residual = 2.584941e-05, Final residual = 3.728245e-08, No Iterations 2
Time = 0.495

DILUPBiCG:  Solving for T, Initial residual = 0.00295819, Final residual = 1.7567043e-08, No Iterations 3
DILUPBiCG:  Solving for T, Initial residual = 2.1580803e-05, Final residual = 5.7452941e-07, No Iterations 1
Time = 0.5

DILUPBiCG:  Solving for T, Initial residual = 0.0029210051, Final residual = 7.6236198e-07, No Iterations 2
DILUPBiCG:  Solving for T, Initial residual = 1.7639628e-05, Final residual = 8.4598216e-07, No Iterations 1
Time = 0.505

DILUPBiCG:  Solving for T, Initial residual = 0.0028833522, Final residual = 7.1414707e-07, No Iterations 2
DILUPBiCG:  Solving for T, Initial residual = 2.0994065e-05, Final residual = 1.4195452e-07, No Iterations 2
Time = 0.51

DILUPBiCG:  Solving for T, Initial residual = 0.0028475361, Final residual = 1.6956608e-08, No Iterations 3
DILUPBiCG:  Solving for T, Initial residual = 2.1053329e-05, Final residual = 2.814525e-07, No Iterations 2
Time = 0.515

DILUPBiCG:  Solving for T, Initial residual = 0.0028120453, Final residual = 1.648816e-08, No Iterations 3
DILUPBiCG:  Solving for T, Initial residual = 1.7225528e-05, Final residual = 6.5240232e-07, No Iterations 1
Time = 0.52

DILUPBiCG:  Solving for T, Initial residual = 0.0027762433, Final residual = 8.4865265e-07, No Iterations 2
DILUPBiCG:  Solving for T, Initial residual = 1.4746581e-05, Final residual = 7.265928e-08, No Iterations 2
Time = 0.525

DILUPBiCG:  Solving for T, Initial residual = 0.0027410762, Final residual = 7.5144924e-07, No Iterations 2
DILUPBiCG:  Solving for T, Initial residual = 2.0887676e-05, Final residual = 5.6740139e-08, No Iterations 2
Time = 0.53

DILUPBiCG:  Solving for T, Initial residual = 0.0027069027, Final residual = 6.7797618e-07, No Iterations 2
DILUPBiCG:  Solving for T, Initial residual = 1.7439271e-05, Final residual = 2.0292605e-07, No Iterations 2
Time = 0.535

DILUPBiCG:  Solving for T, Initial residual = 0.0026726727, Final residual = 7.1313711e-07, No Iterations 2
DILUPBiCG:  Solving for T, Initial residual = 1.4092944e-05, Final residual = 7.3584166e-07, No Iterations 1
Time = 0.54

DILUPBiCG:  Solving for T, Initial residual = 0.00263823, Final residual = 6.9244133e-07, No Iterations 2
DILUPBiCG:  Solving for T, Initial residual = 2.0676682e-05, Final residual = 5.2515803e-08, No Iterations 2
Time = 0.545

DILUPBiCG:  Solving for T, Initial residual = 0.0026049972, Final residual = 6.908777e-07, No Iterations 2
DILUPBiCG:  Solving for T, Initial residual = 1.7672443e-05, Final residual = 7.2740739e-08, No Iterations 2
Time = 0.55

DILUPBiCG:  Solving for T, Initial residual = 0.0025720523, Final residual = 1.8272527e-08, No Iterations 3
DILUPBiCG:  Solving for T, Initial residual = 1.4239891e-05, Final residual = 7.0610188e-07, No Iterations 1
Time = 0.555

DILUPBiCG:  Solving for T, Initial residual = 0.0025386462, Final residual = 1.4492003e-08, No Iterations 3
DILUPBiCG:  Solving for T, Initial residual = 1.8329146e-05, Final residual = 1.308922e-07, No Iterations 2
Time = 0.56

DILUPBiCG:  Solving for T, Initial residual = 0.0025056985, Final residual = 1.3575632e-08, No Iterations 3
DILUPBiCG:  Solving for T, Initial residual = 1.745441e-05, Final residual = 7.1259686e-08, No Iterations 2
Time = 0.565

DILUPBiCG:  Solving for T, Initial residual = 0.0024739429, Final residual = 1.2963624e-08, No Iterations 3
DILUPBiCG:  Solving for T, Initial residual = 1.5058093e-05, Final residual = 8.2216409e-07, No Iterations 1
Time = 0.57

DILUPBiCG:  Solving for T, Initial residual = 0.0024419541, Final residual = 8.6212826e-07, No Iterations 2
DILUPBiCG:  Solving for T, Initial residual = 1.4560559e-05, Final residual = 4.5453776e-07, No Iterations 1
Time = 0.575

DILUPBiCG:  Solving for T, Initial residual = 0.0024099514, Final residual = 5.320336e-07, No Iterations 2
DILUPBiCG:  Solving for T, Initial residual = 1.8561545e-05, Final residual = 8.1990923e-07, No Iterations 1
Time = 0.58

DILUPBiCG:  Solving for T, Initial residual = 0.0023790446, Final residual = 6.3123149e-07, No Iterations 2
DILUPBiCG:  Solving for T, Initial residual = 1.6938215e-05, Final residual = 8.6454403e-07, No Iterations 1
Time = 0.585

DILUPBiCG:  Solving for T, Initial residual = 0.002347862, Final residual = 5.8240101e-07, No Iterations 2
DILUPBiCG:  Solving for T, Initial residual = 1.4213204e-05, Final residual = 4.6813923e-07, No Iterations 1
Time = 0.59

DILUPBiCG:  Solving for T, Initial residual = 0.0023166123, Final residual = 5.4639758e-07, No Iterations 2
DILUPBiCG:  Solving for T, Initial residual = 1.9381296e-05, Final residual = 5.074224e-07, No Iterations 1
Time = 0.595

DILUPBiCG:  Solving for T, Initial residual = 0.0022856572, Final residual = 5.5745164e-07, No Iterations 2
DILUPBiCG:  Solving for T, Initial residual = 1.702657e-05, Final residual = 5.3614868e-07, No Iterations 1
Time = 0.6

DILUPBiCG:  Solving for T, Initial residual = 0.0022549969, Final residual = 5.8198471e-07, No Iterations 2
DILUPBiCG:  Solving for T, Initial residual = 1.4605895e-05, Final residual = 5.0440351e-07, No Iterations 1
Time = 0.605

DILUPBiCG:  Solving for T, Initial residual = 0.0022243609, Final residual = 6.8994132e-07, No Iterations 2
DILUPBiCG:  Solving for T, Initial residual = 1.8726626e-05, Final residual = 7.7125651e-07, No Iterations 1
Time = 0.61

DILUPBiCG:  Solving for T, Initial residual = 0.0021933407, Final residual = 9.4170202e-07, No Iterations 2
DILUPBiCG:  Solving for T, Initial residual = 1.6780086e-05, Final residual = 7.0540992e-07, No Iterations 1
Time = 0.615

DILUPBiCG:  Solving for T, Initial residual = 0.0021627919, Final residual = 5.382281e-07, No Iterations 2
DILUPBiCG:  Solving for T, Initial residual = 1.4061242e-05, Final residual = 6.2901688e-07, No Iterations 1
Time = 0.62

DILUPBiCG:  Solving for T, Initial residual = 0.0021323491, Final residual = 5.5037421e-07, No Iterations 2
DILUPBiCG:  Solving for T, Initial residual = 1.3797802e-05, Final residual = 4.7467562e-07, No Iterations 1
Time = 0.625

DILUPBiCG:  Solving for T, Initial residual = 0.002101976, Final residual = 5.0186743e-07, No Iterations 2
DILUPBiCG:  Solving for T, Initial residual = 1.6104001e-05, Final residual = 6.8706571e-07, No Iterations 1
Time = 0.63

DILUPBiCG:  Solving for T, Initial residual = 0.0020722227, Final residual = 6.1213906e-07, No Iterations 2
DILUPBiCG:  Solving for T, Initial residual = 1.3977901e-05, Final residual = 4.7396888e-07, No Iterations 1
Time = 0.635

DILUPBiCG:  Solving for T, Initial residual = 0.0020430014, Final residual = 4.4152213e-07, No Iterations 2
DILUPBiCG:  Solving for T, Initial residual = 1.1999503e-05, Final residual = 3.6220876e-07, No Iterations 1
Time = 0.64

DILUPBiCG:  Solving for T, Initial residual = 0.0020135912, Final residual = 4.4585713e-07, No Iterations 2
DILUPBiCG:  Solving for T, Initial residual = 1.614762e-05, Final residual = 3.2432522e-08, No Iterations 2
Time = 0.645

DILUPBiCG:  Solving for T, Initial residual = 0.0019840664, Final residual = 4.4585678e-07, No Iterations 2
DILUPBiCG:  Solving for T, Initial residual = 1.434051e-05, Final residual = 5.9998531e-07, No Iterations 1
Time = 0.65

DILUPBiCG:  Solving for T, Initial residual = 0.0019547327, Final residual = 5.162331e-07, No Iterations 2
DILUPBiCG:  Solving for T, Initial residual = 1.2397457e-05, Final residual = 6.5900522e-07, No Iterations 1
Time = 0.655

DILUPBiCG:  Solving for T, Initial residual = 0.0019255209, Final residual = 4.6263753e-07, No Iterations 2
DILUPBiCG:  Solving for T, Initial residual = 1.5857685e-05, Final residual = 2.0326739e-08, No Iterations 2
Time = 0.66

DILUPBiCG:  Solving for T, Initial residual = 0.0018964266, Final residual = 4.5250352e-07, No Iterations 2
DILUPBiCG:  Solving for T, Initial residual = 1.4122069e-05, Final residual = 2.4064122e-08, No Iterations 2
Time = 0.665

DILUPBiCG:  Solving for T, Initial residual = 0.0018673077, Final residual = 4.4553613e-07, No Iterations 2
DILUPBiCG:  Solving for T, Initial residual = 1.2421029e-05, Final residual = 9.1014813e-07, No Iterations 1
Time = 0.67

DILUPBiCG:  Solving for T, Initial residual = 0.0018383106, Final residual = 4.9596536e-07, No Iterations 2
DILUPBiCG:  Solving for T, Initial residual = 1.2648902e-05, Final residual = 4.1027416e-07, No Iterations 1
Time = 0.675

DILUPBiCG:  Solving for T, Initial residual = 0.0018099666, Final residual = 3.4063537e-07, No Iterations 2
DILUPBiCG:  Solving for T, Initial residual = 1.42772e-05, Final residual = 7.2004699e-07, No Iterations 1
Time = 0.68

DILUPBiCG:  Solving for T, Initial residual = 0.0017814336, Final residual = 4.2283067e-07, No Iterations 2
DILUPBiCG:  Solving for T, Initial residual = 1.2989071e-05, Final residual = 2.9291678e-08, No Iterations 2
Time = 0.685

DILUPBiCG:  Solving for T, Initial residual = 0.001753402, Final residual = 4.0322872e-07, No Iterations 2
DILUPBiCG:  Solving for T, Initial residual = 1.1636225e-05, Final residual = 9.3521197e-07, No Iterations 1
Time = 0.69

DILUPBiCG:  Solving for T, Initial residual = 0.0017258862, Final residual = 4.2480869e-07, No Iterations 2
DILUPBiCG:  Solving for T, Initial residual = 1.5555325e-05, Final residual = 4.7633585e-07, No Iterations 1
Time = 0.695

DILUPBiCG:  Solving for T, Initial residual = 0.0016975666, Final residual = 3.8726581e-07, No Iterations 2
DILUPBiCG:  Solving for T, Initial residual = 1.4112775e-05, Final residual = 7.5433473e-07, No Iterations 1
Time = 0.7

DILUPBiCG:  Solving for T, Initial residual = 0.0016695877, Final residual = 3.9029714e-07, No Iterations 2
DILUPBiCG:  Solving for T, Initial residual = 1.2873418e-05, Final residual = 1.4745874e-08, No Iterations 2
Time = 0.705

DILUPBiCG:  Solving for T, Initial residual = 0.0016414294, Final residual = 3.8524839e-07, No Iterations 2
DILUPBiCG:  Solving for T, Initial residual = 1.5691341e-05, Final residual = 5.6003436e-07, No Iterations 1
Time = 0.71

DILUPBiCG:  Solving for T, Initial residual = 0.001613458, Final residual = 3.7329564e-07, No Iterations 2
DILUPBiCG:  Solving for T, Initial residual = 1.4568602e-05, Final residual = 4.0560636e-07, No Iterations 1
Time = 0.715

DILUPBiCG:  Solving for T, Initial residual = 0.0015853869, Final residual = 3.060679e-07, No Iterations 2
DILUPBiCG:  Solving for T, Initial residual = 1.3119957e-05, Final residual = 1.2282849e-08, No Iterations 2
Time = 0.72

DILUPBiCG:  Solving for T, Initial residual = 0.0015573185, Final residual = 3.015556e-07, No Iterations 2
DILUPBiCG:  Solving for T, Initial residual = 1.3856793e-05, Final residual = 3.6086576e-07, No Iterations 1
Time = 0.725

DILUPBiCG:  Solving for T, Initial residual = 0.0015290721, Final residual = 3.2441629e-07, No Iterations 2
DILUPBiCG:  Solving for T, Initial residual = 1.3921042e-05, Final residual = 3.8142981e-07, No Iterations 1
Time = 0.73

DILUPBiCG:  Solving for T, Initial residual = 0.0015006393, Final residual = 2.9367766e-07, No Iterations 2
DILUPBiCG:  Solving for T, Initial residual = 1.2500561e-05, Final residual = 4.4468442e-08, No Iterations 2
Time = 0.735

DILUPBiCG:  Solving for T, Initial residual = 0.001472752, Final residual = 2.7796078e-07, No Iterations 2
DILUPBiCG:  Solving for T, Initial residual = 1.1523052e-05, Final residual = 1.991026e-08, No Iterations 2
Time = 0.74

DILUPBiCG:  Solving for T, Initial residual = 0.0014453438, Final residual = 2.7907452e-07, No Iterations 2
DILUPBiCG:  Solving for T, Initial residual = 1.3875787e-05, Final residual = 4.4115154e-07, No Iterations 1
Time = 0.745

DILUPBiCG:  Solving for T, Initial residual = 0.0014176111, Final residual = 2.9355297e-07, No Iterations 2
DILUPBiCG:  Solving for T, Initial residual = 1.2821789e-05, Final residual = 6.3769285e-07, No Iterations 1
Time = 0.75

DILUPBiCG:  Solving for T, Initial residual = 0.0013895425, Final residual = 2.8221921e-07, No Iterations 2
DILUPBiCG:  Solving for T, Initial residual = 1.1389488e-05, Final residual = 4.6258766e-07, No Iterations 1
Time = 0.755

DILUPBiCG:  Solving for T, Initial residual = 0.0013617995, Final residual = 2.7986362e-07, No Iterations 2
DILUPBiCG:  Solving for T, Initial residual = 1.3302327e-05, Final residual = 6.5049414e-07, No Iterations 1
Time = 0.76

DILUPBiCG:  Solving for T, Initial residual = 0.0013340453, Final residual = 2.7204233e-07, No Iterations 2
DILUPBiCG:  Solving for T, Initial residual = 1.2154512e-05, Final residual = 3.3980457e-07, No Iterations 1
Time = 0.765

DILUPBiCG:  Solving for T, Initial residual = 0.0013064003, Final residual = 2.6475742e-07, No Iterations 2
DILUPBiCG:  Solving for T, Initial residual = 1.1260245e-05, Final residual = 3.7895059e-07, No Iterations 1
Time = 0.77

DILUPBiCG:  Solving for T, Initial residual = 0.0012785838, Final residual = 2.5746707e-07, No Iterations 2
DILUPBiCG:  Solving for T, Initial residual = 1.1876136e-05, Final residual = 2.5483506e-08, No Iterations 2
Time = 0.775

DILUPBiCG:  Solving for T, Initial residual = 0.001250908, Final residual = 2.508142e-07, No Iterations 2
DILUPBiCG:  Solving for T, Initial residual = 1.1659222e-05, Final residual = 5.4949654e-07, No Iterations 1
Time = 0.78

DILUPBiCG:  Solving for T, Initial residual = 0.0012232774, Final residual = 2.4460702e-07, No Iterations 2
DILUPBiCG:  Solving for T, Initial residual = 1.0824907e-05, Final residual = 2.9769964e-07, No Iterations 1
Time = 0.785

DILUPBiCG:  Solving for T, Initial residual = 0.0011953458, Final residual = 2.3768472e-07, No Iterations 2
DILUPBiCG:  Solving for T, Initial residual = 9.8616005e-06, Final residual = 2.5843701e-07, No Iterations 1
Time = 0.79

DILUPBiCG:  Solving for T, Initial residual = 0.001167801, Final residual = 2.3082127e-07, No Iterations 2
DILUPBiCG:  Solving for T, Initial residual = 1.1195584e-05, Final residual = 9.0538711e-07, No Iterations 1
Time = 0.795

DILUPBiCG:  Solving for T, Initial residual = 0.0011408408, Final residual = 2.248249e-07, No Iterations 2
DILUPBiCG:  Solving for T, Initial residual = 1.0947635e-05, Final residual = 2.9009445e-07, No Iterations 1
Time = 0.8

DILUPBiCG:  Solving for T, Initial residual = 0.0011133244, Final residual = 2.1829009e-07, No Iterations 2
DILUPBiCG:  Solving for T, Initial residual = 1.0041651e-05, Final residual = 2.5675083e-07, No Iterations 1
Time = 0.805

DILUPBiCG:  Solving for T, Initial residual = 0.0010857574, Final residual = 2.1172011e-07, No Iterations 2
DILUPBiCG:  Solving for T, Initial residual = 1.1213036e-05, Final residual = 9.4399156e-07, No Iterations 1
Time = 0.81

DILUPBiCG:  Solving for T, Initial residual = 0.0010587075, Final residual = 2.0552358e-07, No Iterations 2
DILUPBiCG:  Solving for T, Initial residual = 1.0961913e-05, Final residual = 3.3227832e-07, No Iterations 1
Time = 0.815

DILUPBiCG:  Solving for T, Initial residual = 0.0010311709, Final residual = 1.9901752e-07, No Iterations 2
DILUPBiCG:  Solving for T, Initial residual = 1.0225784e-05, Final residual = 2.7163512e-07, No Iterations 1
Time = 0.82

DILUPBiCG:  Solving for T, Initial residual = 0.0010036835, Final residual = 1.9254238e-07, No Iterations 2
DILUPBiCG:  Solving for T, Initial residual = 1.095745e-05, Final residual = 3.9992214e-07, No Iterations 1
Time = 0.825

DILUPBiCG:  Solving for T, Initial residual = 0.00097657187, Final residual = 1.8656931e-07, No Iterations 2
DILUPBiCG:  Solving for T, Initial residual = 1.1116429e-05, Final residual = 3.2003717e-07, No Iterations 1
Time = 0.83

DILUPBiCG:  Solving for T, Initial residual = 0.00094954008, Final residual = 1.8034903e-07, No Iterations 2
DILUPBiCG:  Solving for T, Initial residual = 1.0994144e-05, Final residual = 2.8847953e-07, No Iterations 1
Time = 0.835

DILUPBiCG:  Solving for T, Initial residual = 0.00092261041, Final residual = 1.7412726e-07, No Iterations 2
DILUPBiCG:  Solving for T, Initial residual = 1.1081897e-05, Final residual = 2.7800866e-07, No Iterations 1
Time = 0.84

DILUPBiCG:  Solving for T, Initial residual = 0.00089587961, Final residual = 1.6846081e-07, No Iterations 2
DILUPBiCG:  Solving for T, Initial residual = 1.2260852e-05, Final residual = 3.0435311e-07, No Iterations 1
Time = 0.845

DILUPBiCG:  Solving for T, Initial residual = 0.00086924597, Final residual = 1.6272178e-07, No Iterations 2
DILUPBiCG:  Solving for T, Initial residual = 1.2245606e-05, Final residual = 2.9903472e-07, No Iterations 1
Time = 0.85

DILUPBiCG:  Solving for T, Initial residual = 0.00084268773, Final residual = 1.5685036e-07, No Iterations 2
DILUPBiCG:  Solving for T, Initial residual = 1.2222587e-05, Final residual = 2.9122287e-07, No Iterations 1
Time = 0.855

DILUPBiCG:  Solving for T, Initial residual = 0.00081616969, Final residual = 1.5115026e-07, No Iterations 2
DILUPBiCG:  Solving for T, Initial residual = 1.3190621e-05, Final residual = 3.0829367e-07, No Iterations 1
Time = 0.86

DILUPBiCG:  Solving for T, Initial residual = 0.00078945995, Final residual = 1.4573182e-07, No Iterations 2
DILUPBiCG:  Solving for T, Initial residual = 1.2879121e-05, Final residual = 3.0857317e-07, No Iterations 1
Time = 0.865

DILUPBiCG:  Solving for T, Initial residual = 0.00076273276, Final residual = 1.4031866e-07, No Iterations 2
DILUPBiCG:  Solving for T, Initial residual = 1.2831533e-05, Final residual = 3.0997236e-07, No Iterations 1
Time = 0.87

DILUPBiCG:  Solving for T, Initial residual = 0.00073638088, Final residual = 1.3492696e-07, No Iterations 2
DILUPBiCG:  Solving for T, Initial residual = 1.3219498e-05, Final residual = 3.0622016e-07, No Iterations 1
Time = 0.875

DILUPBiCG:  Solving for T, Initial residual = 0.00070996571, Final residual = 1.2971026e-07, No Iterations 2
DILUPBiCG:  Solving for T, Initial residual = 1.3257763e-05, Final residual = 3.172717e-07, No Iterations 1
Time = 0.88

DILUPBiCG:  Solving for T, Initial residual = 0.00068358786, Final residual = 1.2444094e-07, No Iterations 2
DILUPBiCG:  Solving for T, Initial residual = 1.3032972e-05, Final residual = 3.1842912e-07, No Iterations 1
Time = 0.885

DILUPBiCG:  Solving for T, Initial residual = 0.00065738616, Final residual = 1.1921288e-07, No Iterations 2
DILUPBiCG:  Solving for T, Initial residual = 1.2730704e-05, Final residual = 3.1572512e-07, No Iterations 1
Time = 0.89

DILUPBiCG:  Solving for T, Initial residual = 0.00063140281, Final residual = 1.1408814e-07, No Iterations 2
DILUPBiCG:  Solving for T, Initial residual = 1.3753998e-05, Final residual = 3.4212138e-07, No Iterations 1
Time = 0.895

DILUPBiCG:  Solving for T, Initial residual = 0.00060563467, Final residual = 1.0911576e-07, No Iterations 2
DILUPBiCG:  Solving for T, Initial residual = 1.4006343e-05, Final residual = 3.606334e-07, No Iterations 1
Time = 0.9

DILUPBiCG:  Solving for T, Initial residual = 0.00058007211, Final residual = 1.0435454e-07, No Iterations 2
DILUPBiCG:  Solving for T, Initial residual = 1.478153e-05, Final residual = 4.0234316e-07, No Iterations 1
Time = 0.905

DILUPBiCG:  Solving for T, Initial residual = 0.00055481295, Final residual = 9.9746296e-08, No Iterations 2
DILUPBiCG:  Solving for T, Initial residual = 1.5564231e-05, Final residual = 4.6026207e-07, No Iterations 1
Time = 0.91

DILUPBiCG:  Solving for T, Initial residual = 0.00052984129, Final residual = 9.5251569e-08, No Iterations 2
DILUPBiCG:  Solving for T, Initial residual = 1.6731909e-05, Final residual = 6.4940941e-07, No Iterations 1
Time = 0.915

DILUPBiCG:  Solving for T, Initial residual = 0.00050566821, Final residual = 9.0919669e-08, No Iterations 2
DILUPBiCG:  Solving for T, Initial residual = 1.8150678e-05, Final residual = 5.9791361e-08, No Iterations 2
Time = 0.92

DILUPBiCG:  Solving for T, Initial residual = 0.00048193722, Final residual = 8.6684481e-08, No Iterations 2
DILUPBiCG:  Solving for T, Initial residual = 1.920408e-05, Final residual = 5.922483e-07, No Iterations 1
Time = 0.925

DILUPBiCG:  Solving for T, Initial residual = 0.00045819159, Final residual = 8.2224777e-08, No Iterations 2
DILUPBiCG:  Solving for T, Initial residual = 1.9851334e-05, Final residual = 4.9596964e-07, No Iterations 1
Time = 0.93

DILUPBiCG:  Solving for T, Initial residual = 0.00043500773, Final residual = 7.7900788e-08, No Iterations 2
DILUPBiCG:  Solving for T, Initial residual = 2.0778224e-05, Final residual = 5.2834264e-07, No Iterations 1
Time = 0.935

DILUPBiCG:  Solving for T, Initial residual = 0.00041231646, Final residual = 7.3644256e-08, No Iterations 2
DILUPBiCG:  Solving for T, Initial residual = 2.2247286e-05, Final residual = 5.4198272e-07, No Iterations 1
Time = 0.94

DILUPBiCG:  Solving for T, Initial residual = 0.0003901677, Final residual = 6.9644468e-08, No Iterations 2
DILUPBiCG:  Solving for T, Initial residual = 2.3783091e-05, Final residual = 5.6811907e-07, No Iterations 1
Time = 0.945

DILUPBiCG:  Solving for T, Initial residual = 0.00036861222, Final residual = 6.5778132e-08, No Iterations 2
DILUPBiCG:  Solving for T, Initial residual = 2.5800677e-05, Final residual = 5.9906633e-07, No Iterations 1
Time = 0.95

DILUPBiCG:  Solving for T, Initial residual = 0.00034763094, Final residual = 6.2274561e-08, No Iterations 2
DILUPBiCG:  Solving for T, Initial residual = 2.8534341e-05, Final residual = 6.3158415e-07, No Iterations 1
Time = 0.955

DILUPBiCG:  Solving for T, Initial residual = 0.00032733647, Final residual = 5.8854443e-08, No Iterations 2
DILUPBiCG:  Solving for T, Initial residual = 3.1601211e-05, Final residual = 6.5692456e-07, No Iterations 1
Time = 0.96

DILUPBiCG:  Solving for T, Initial residual = 0.00030767657, Final residual = 5.5439171e-08, No Iterations 2
DILUPBiCG:  Solving for T, Initial residual = 3.4853608e-05, Final residual = 6.7972787e-07, No Iterations 1
Time = 0.965

DILUPBiCG:  Solving for T, Initial residual = 0.00028862257, Final residual = 5.2168491e-08, No Iterations 2
DILUPBiCG:  Solving for T, Initial residual = 3.8507196e-05, Final residual = 7.080366e-07, No Iterations 1
Time = 0.97

DILUPBiCG:  Solving for T, Initial residual = 0.00027058554, Final residual = 4.8881531e-08, No Iterations 2
DILUPBiCG:  Solving for T, Initial residual = 4.2271925e-05, Final residual = 7.7622196e-07, No Iterations 1
Time = 0.975

DILUPBiCG:  Solving for T, Initial residual = 0.00025326073, Final residual = 4.5775385e-08, No Iterations 2
DILUPBiCG:  Solving for T, Initial residual = 4.6331192e-05, Final residual = 9.4614561e-07, No Iterations 1
Time = 0.98

DILUPBiCG:  Solving for T, Initial residual = 0.00023675522, Final residual = 4.2855677e-08, No Iterations 2
DILUPBiCG:  Solving for T, Initial residual = 5.0604694e-05, Final residual = 3.5745626e-08, No Iterations 2
Time = 0.985

DILUPBiCG:  Solving for T, Initial residual = 0.00022148175, Final residual = 4.093016e-08, No Iterations 2
DILUPBiCG:  Solving for T, Initial residual = 5.5258041e-05, Final residual = 3.295703e-08, No Iterations 2
Time = 0.99

DILUPBiCG:  Solving for T, Initial residual = 0.0002070453, Final residual = 3.9310394e-08, No Iterations 2
DILUPBiCG:  Solving for T, Initial residual = 6.0070318e-05, Final residual = 3.2142605e-08, No Iterations 2
Time = 0.995

DILUPBiCG:  Solving for T, Initial residual = 0.00019349317, Final residual = 3.8543941e-08, No Iterations 2
DILUPBiCG:  Solving for T, Initial residual = 6.595516e-05, Final residual = 3.3451319e-08, No Iterations 2
Time = 1

DILUPBiCG:  Solving for T, Initial residual = 0.00018074341, Final residual = 3.8593944e-08, No Iterations 2
DILUPBiCG:  Solving for T, Initial residual = 7.2476842e-05, Final residual = 3.5345695e-08, No Iterations 2
Time = 1.005

DILUPBiCG:  Solving for T, Initial residual = 0.00016852815, Final residual = 3.8258237e-08, No Iterations 2
DILUPBiCG:  Solving for T, Initial residual = 7.8435988e-05, Final residual = 3.6301812e-08, No Iterations 2
Time = 1.01

DILUPBiCG:  Solving for T, Initial residual = 0.00015746532, Final residual = 3.8496874e-08, No Iterations 2
DILUPBiCG:  Solving for T, Initial residual = 8.3689769e-05, Final residual = 3.74289e-08, No Iterations 2
Time = 1.015

DILUPBiCG:  Solving for T, Initial residual = 0.00014797963, Final residual = 3.8984337e-08, No Iterations 2
DILUPBiCG:  Solving for T, Initial residual = 8.8897926e-05, Final residual = 3.8870012e-08, No Iterations 2
Time = 1.02

DILUPBiCG:  Solving for T, Initial residual = 0.00014076275, Final residual = 3.9584535e-08, No Iterations 2
DILUPBiCG:  Solving for T, Initial residual = 9.3817563e-05, Final residual = 4.0358687e-08, No Iterations 2
Time = 1.025

DILUPBiCG:  Solving for T, Initial residual = 0.00013598875, Final residual = 4.0284716e-08, No Iterations 2
DILUPBiCG:  Solving for T, Initial residual = 9.8516544e-05, Final residual = 4.2083116e-08, No Iterations 2
Time = 1.03

DILUPBiCG:  Solving for T, Initial residual = 0.00013219533, Final residual = 4.1090396e-08, No Iterations 2
DILUPBiCG:  Solving for T, Initial residual = 0.00010264867, Final residual = 4.3833484e-08, No Iterations 2
Time = 1.035

DILUPBiCG:  Solving for T, Initial residual = 0.00012987863, Final residual = 4.1899473e-08, No Iterations 2
DILUPBiCG:  Solving for T, Initial residual = 0.00010609541, Final residual = 4.5146706e-08, No Iterations 2
Time = 1.04

DILUPBiCG:  Solving for T, Initial residual = 0.00012869599, Final residual = 4.2706982e-08, No Iterations 2
DILUPBiCG:  Solving for T, Initial residual = 0.00010946035, Final residual = 4.6388102e-08, No Iterations 2
Time = 1.045

DILUPBiCG:  Solving for T, Initial residual = 0.000127847, Final residual = 4.360167e-08, No Iterations 2
DILUPBiCG:  Solving for T, Initial residual = 0.00011255581, Final residual = 4.7603246e-08, No Iterations 2
Time = 1.05

DILUPBiCG:  Solving for T, Initial residual = 0.00012772483, Final residual = 4.4577417e-08, No Iterations 2
DILUPBiCG:  Solving for T, Initial residual = 0.00011581336, Final residual = 4.8777995e-08, No Iterations 2
Time = 1.055

DILUPBiCG:  Solving for T, Initial residual = 0.00012862245, Final residual = 4.6024e-08, No Iterations 2
DILUPBiCG:  Solving for T, Initial residual = 0.00011889352, Final residual = 4.9795154e-08, No Iterations 2
Time = 1.06

DILUPBiCG:  Solving for T, Initial residual = 0.0001294856, Final residual = 4.822599e-08, No Iterations 2
DILUPBiCG:  Solving for T, Initial residual = 0.00012167536, Final residual = 5.0654254e-08, No Iterations 2
Time = 1.065

DILUPBiCG:  Solving for T, Initial residual = 0.00013067107, Final residual = 5.2810956e-08, No Iterations 2
DILUPBiCG:  Solving for T, Initial residual = 0.00012411301, Final residual = 5.1433753e-08, No Iterations 2
Time = 1.07

DILUPBiCG:  Solving for T, Initial residual = 0.00013198425, Final residual = 6.6336643e-08, No Iterations 2
DILUPBiCG:  Solving for T, Initial residual = 0.00012628232, Final residual = 5.2143226e-08, No Iterations 2
Time = 1.075

DILUPBiCG:  Solving for T, Initial residual = 0.00013331851, Final residual = 1.8763472e-07, No Iterations 2
DILUPBiCG:  Solving for T, Initial residual = 0.00012804261, Final residual = 5.2749298e-08, No Iterations 2
Time = 1.08

DILUPBiCG:  Solving for T, Initial residual = 0.0001346114, Final residual = 1.7763932e-07, No Iterations 2
DILUPBiCG:  Solving for T, Initial residual = 0.00013051417, Final residual = 5.347164e-08, No Iterations 2
Time = 1.085

DILUPBiCG:  Solving for T, Initial residual = 0.00013636228, Final residual = 7.6829878e-08, No Iterations 2
DILUPBiCG:  Solving for T, Initial residual = 0.00013217793, Final residual = 5.4035188e-08, No Iterations 2
Time = 1.09

DILUPBiCG:  Solving for T, Initial residual = 0.00013783489, Final residual = 6.1635842e-08, No Iterations 2
DILUPBiCG:  Solving for T, Initial residual = 0.00013375226, Final residual = 5.452152e-08, No Iterations 2
Time = 1.095

DILUPBiCG:  Solving for T, Initial residual = 0.00013922814, Final residual = 5.7619408e-08, No Iterations 2
DILUPBiCG:  Solving for T, Initial residual = 0.00013521614, Final residual = 5.4970991e-08, No Iterations 2
Time = 1.1

DILUPBiCG:  Solving for T, Initial residual = 0.00014056764, Final residual = 5.595557e-08, No Iterations 2
DILUPBiCG:  Solving for T, Initial residual = 0.00013659012, Final residual = 5.54179e-08, No Iterations 2
Time = 1.105

DILUPBiCG:  Solving for T, Initial residual = 0.00014188391, Final residual = 5.5083619e-08, No Iterations 2
DILUPBiCG:  Solving for T, Initial residual = 0.00013815109, Final residual = 5.5916049e-08, No Iterations 2
Time = 1.11

DILUPBiCG:  Solving for T, Initial residual = 0.00014341293, Final residual = 5.461887e-08, No Iterations 2
DILUPBiCG:  Solving for T, Initial residual = 0.00013959776, Final residual = 5.638306e-08, No Iterations 2
Time = 1.115

DILUPBiCG:  Solving for T, Initial residual = 0.00014479268, Final residual = 5.4461447e-08, No Iterations 2
DILUPBiCG:  Solving for T, Initial residual = 0.00014081048, Final residual = 5.6757674e-08, No Iterations 2
Time = 1.12

DILUPBiCG:  Solving for T, Initial residual = 0.00014601334, Final residual = 5.4372072e-08, No Iterations 2
DILUPBiCG:  Solving for T, Initial residual = 0.00014192239, Final residual = 5.71303e-08, No Iterations 2
Time = 1.125

DILUPBiCG:  Solving for T, Initial residual = 0.0001471431, Final residual = 5.43156e-08, No Iterations 2
DILUPBiCG:  Solving for T, Initial residual = 0.00014298915, Final residual = 5.7461041e-08, No Iterations 2
Time = 1.13

DILUPBiCG:  Solving for T, Initial residual = 0.00014823959, Final residual = 5.4377667e-08, No Iterations 2
DILUPBiCG:  Solving for T, Initial residual = 0.00014395043, Final residual = 5.7754262e-08, No Iterations 2
Time = 1.135

DILUPBiCG:  Solving for T, Initial residual = 0.00014928319, Final residual = 5.4483988e-08, No Iterations 2
DILUPBiCG:  Solving for T, Initial residual = 0.00014506246, Final residual = 5.8089174e-08, No Iterations 2
Time = 1.14

DILUPBiCG:  Solving for T, Initial residual = 0.00015046124, Final residual = 5.4636219e-08, No Iterations 2
DILUPBiCG:  Solving for T, Initial residual = 0.00014614178, Final residual = 5.841534e-08, No Iterations 2
Time = 1.145

DILUPBiCG:  Solving for T, Initial residual = 0.00015155743, Final residual = 5.4868849e-08, No Iterations 2
DILUPBiCG:  Solving for T, Initial residual = 0.00014714932, Final residual = 5.8670343e-08, No Iterations 2
Time = 1.15

DILUPBiCG:  Solving for T, Initial residual = 0.00015255644, Final residual = 5.5313035e-08, No Iterations 2
DILUPBiCG:  Solving for T, Initial residual = 0.00014801938, Final residual = 5.8871121e-08, No Iterations 2
Time = 1.155

DILUPBiCG:  Solving for T, Initial residual = 0.00015341503, Final residual = 5.5795976e-08, No Iterations 2
DILUPBiCG:  Solving for T, Initial residual = 0.00014873599, Final residual = 5.9038213e-08, No Iterations 2
Time = 1.16

DILUPBiCG:  Solving for T, Initial residual = 0.00015411422, Final residual = 5.6221009e-08, No Iterations 2
DILUPBiCG:  Solving for T, Initial residual = 0.00014941513, Final residual = 5.916438e-08, No Iterations 2
Time = 1.165

DILUPBiCG:  Solving for T, Initial residual = 0.000154972, Final residual = 5.660975e-08, No Iterations 2
DILUPBiCG:  Solving for T, Initial residual = 0.00015045405, Final residual = 5.933614e-08, No Iterations 2
Time = 1.17

DILUPBiCG:  Solving for T, Initial residual = 0.00015603655, Final residual = 5.7094405e-08, No Iterations 2
DILUPBiCG:  Solving for T, Initial residual = 0.0001514684, Final residual = 5.9490739e-08, No Iterations 2
Time = 1.175

DILUPBiCG:  Solving for T, Initial residual = 0.00015705269, Final residual = 5.7686952e-08, No Iterations 2
DILUPBiCG:  Solving for T, Initial residual = 0.00015237393, Final residual = 5.9633723e-08, No Iterations 2
Time = 1.18

DILUPBiCG:  Solving for T, Initial residual = 0.00015803519, Final residual = 5.8269866e-08, No Iterations 2
DILUPBiCG:  Solving for T, Initial residual = 0.00015340517, Final residual = 5.9751503e-08, No Iterations 2
Time = 1.185

DILUPBiCG:  Solving for T, Initial residual = 0.00015907473, Final residual = 5.8944621e-08, No Iterations 2
DILUPBiCG:  Solving for T, Initial residual = 0.00015432769, Final residual = 5.9944048e-08, No Iterations 2
Time = 1.19

DILUPBiCG:  Solving for T, Initial residual = 0.0001599391, Final residual = 5.9594268e-08, No Iterations 2
DILUPBiCG:  Solving for T, Initial residual = 0.00015501859, Final residual = 6.003757e-08, No Iterations 2
Time = 1.195

DILUPBiCG:  Solving for T, Initial residual = 0.0001605698, Final residual = 6.0105115e-08, No Iterations 2
DILUPBiCG:  Solving for T, Initial residual = 0.00015547854, Final residual = 5.9963886e-08, No Iterations 2
Time = 1.2

DILUPBiCG:  Solving for T, Initial residual = 0.00016100487, Final residual = 6.0520737e-08, No Iterations 2
DILUPBiCG:  Solving for T, Initial residual = 0.00015579597, Final residual = 5.9987868e-08, No Iterations 2
Time = 1.205

DILUPBiCG:  Solving for T, Initial residual = 0.00016137627, Final residual = 6.0948099e-08, No Iterations 2
DILUPBiCG:  Solving for T, Initial residual = 0.00015620394, Final residual = 6.0090564e-08, No Iterations 2
Time = 1.21

DILUPBiCG:  Solving for T, Initial residual = 0.00016164919, Final residual = 6.1208163e-08, No Iterations 2
DILUPBiCG:  Solving for T, Initial residual = 0.00015623359, Final residual = 6.0029813e-08, No Iterations 2
Time = 1.215

DILUPBiCG:  Solving for T, Initial residual = 0.00016172471, Final residual = 6.1329105e-08, No Iterations 2
DILUPBiCG:  Solving for T, Initial residual = 0.00015620703, Final residual = 6.0050463e-08, No Iterations 2
Time = 1.22

DILUPBiCG:  Solving for T, Initial residual = 0.00016167163, Final residual = 6.1369035e-08, No Iterations 2
DILUPBiCG:  Solving for T, Initial residual = 0.00015603326, Final residual = 6.0095134e-08, No Iterations 2
Time = 1.225

DILUPBiCG:  Solving for T, Initial residual = 0.00016150857, Final residual = 6.1362764e-08, No Iterations 2
DILUPBiCG:  Solving for T, Initial residual = 0.00015588195, Final residual = 6.0208347e-08, No Iterations 2
Time = 1.23

DILUPBiCG:  Solving for T, Initial residual = 0.0001614041, Final residual = 6.1362321e-08, No Iterations 2
DILUPBiCG:  Solving for T, Initial residual = 0.00015588676, Final residual = 6.0420035e-08, No Iterations 2
Time = 1.235

DILUPBiCG:  Solving for T, Initial residual = 0.0001615114, Final residual = 6.1421541e-08, No Iterations 2
DILUPBiCG:  Solving for T, Initial residual = 0.00015616377, Final residual = 6.0667534e-08, No Iterations 2
Time = 1.24

DILUPBiCG:  Solving for T, Initial residual = 0.00016178772, Final residual = 6.1433051e-08, No Iterations 2
DILUPBiCG:  Solving for T, Initial residual = 0.00015638231, Final residual = 6.0900153e-08, No Iterations 2
Time = 1.245

DILUPBiCG:  Solving for T, Initial residual = 0.00016190425, Final residual = 6.1327027e-08, No Iterations 2
DILUPBiCG:  Solving for T, Initial residual = 0.00015637103, Final residual = 6.1042637e-08, No Iterations 2
Time = 1.25

DILUPBiCG:  Solving for T, Initial residual = 0.00016189693, Final residual = 6.1233473e-08, No Iterations 2
DILUPBiCG:  Solving for T, Initial residual = 0.00015636488, Final residual = 6.1138904e-08, No Iterations 2
Time = 1.255

DILUPBiCG:  Solving for T, Initial residual = 0.00016192045, Final residual = 6.1147295e-08, No Iterations 2
DILUPBiCG:  Solving for T, Initial residual = 0.00015629971, Final residual = 6.1169203e-08, No Iterations 2
Time = 1.26

DILUPBiCG:  Solving for T, Initial residual = 0.00016183976, Final residual = 6.1030928e-08, No Iterations 2
DILUPBiCG:  Solving for T, Initial residual = 0.00015616528, Final residual = 6.1170358e-08, No Iterations 2
Time = 1.265

DILUPBiCG:  Solving for T, Initial residual = 0.00016174878, Final residual = 6.0906503e-08, No Iterations 2
DILUPBiCG:  Solving for T, Initial residual = 0.00015610079, Final residual = 6.1182347e-08, No Iterations 2
Time = 1.27

DILUPBiCG:  Solving for T, Initial residual = 0.00016168355, Final residual = 6.0787919e-08, No Iterations 2
DILUPBiCG:  Solving for T, Initial residual = 0.00015599206, Final residual = 6.1199728e-08, No Iterations 2
Time = 1.275

DILUPBiCG:  Solving for T, Initial residual = 0.00016160629, Final residual = 6.0670227e-08, No Iterations 2
DILUPBiCG:  Solving for T, Initial residual = 0.00015592346, Final residual = 6.1256179e-08, No Iterations 2
Time = 1.28

DILUPBiCG:  Solving for T, Initial residual = 0.00016152215, Final residual = 6.0603151e-08, No Iterations 2
DILUPBiCG:  Solving for T, Initial residual = 0.00015578978, Final residual = 6.136953e-08, No Iterations 2
Time = 1.285

DILUPBiCG:  Solving for T, Initial residual = 0.00016137767, Final residual = 6.0567369e-08, No Iterations 2
DILUPBiCG:  Solving for T, Initial residual = 0.00015560068, Final residual = 6.1487005e-08, No Iterations 2
Time = 1.29

DILUPBiCG:  Solving for T, Initial residual = 0.00016123256, Final residual = 6.0503373e-08, No Iterations 2
DILUPBiCG:  Solving for T, Initial residual = 0.00015573839, Final residual = 6.1628716e-08, No Iterations 2
Time = 1.295

DILUPBiCG:  Solving for T, Initial residual = 0.00016141995, Final residual = 6.0488832e-08, No Iterations 2
DILUPBiCG:  Solving for T, Initial residual = 0.00015586981, Final residual = 6.1721628e-08, No Iterations 2
Time = 1.3

DILUPBiCG:  Solving for T, Initial residual = 0.00016150879, Final residual = 6.0488768e-08, No Iterations 2
DILUPBiCG:  Solving for T, Initial residual = 0.00015600326, Final residual = 6.1724772e-08, No Iterations 2
Time = 1.305

DILUPBiCG:  Solving for T, Initial residual = 0.00016168519, Final residual = 6.051061e-08, No Iterations 2
DILUPBiCG:  Solving for T, Initial residual = 0.0001562053, Final residual = 6.1811377e-08, No Iterations 2
Time = 1.31

DILUPBiCG:  Solving for T, Initial residual = 0.0001619087, Final residual = 6.0591983e-08, No Iterations 2
DILUPBiCG:  Solving for T, Initial residual = 0.00015649568, Final residual = 6.192637e-08, No Iterations 2
Time = 1.315

DILUPBiCG:  Solving for T, Initial residual = 0.00016221196, Final residual = 6.0653319e-08, No Iterations 2
DILUPBiCG:  Solving for T, Initial residual = 0.00015681298, Final residual = 6.2058015e-08, No Iterations 2
Time = 1.32

DILUPBiCG:  Solving for T, Initial residual = 0.00016259715, Final residual = 6.0712291e-08, No Iterations 2
DILUPBiCG:  Solving for T, Initial residual = 0.0001573423, Final residual = 6.2275469e-08, No Iterations 2
Time = 1.325

DILUPBiCG:  Solving for T, Initial residual = 0.00016314095, Final residual = 6.0903788e-08, No Iterations 2
DILUPBiCG:  Solving for T, Initial residual = 0.00015783833, Final residual = 6.2482777e-08, No Iterations 2
Time = 1.33

DILUPBiCG:  Solving for T, Initial residual = 0.00016354392, Final residual = 6.1051221e-08, No Iterations 2
DILUPBiCG:  Solving for T, Initial residual = 0.00015807731, Final residual = 6.2499695e-08, No Iterations 2
Time = 1.335

DILUPBiCG:  Solving for T, Initial residual = 0.00016370855, Final residual = 6.1089055e-08, No Iterations 2
DILUPBiCG:  Solving for T, Initial residual = 0.00015810087, Final residual = 6.246788e-08, No Iterations 2
Time = 1.34

DILUPBiCG:  Solving for T, Initial residual = 0.00016369806, Final residual = 6.1052578e-08, No Iterations 2
DILUPBiCG:  Solving for T, Initial residual = 0.00015821237, Final residual = 6.2492619e-08, No Iterations 2
Time = 1.345

DILUPBiCG:  Solving for T, Initial residual = 0.00016373705, Final residual = 6.1074887e-08, No Iterations 2
DILUPBiCG:  Solving for T, Initial residual = 0.00015820073, Final residual = 6.2475559e-08, No Iterations 2
Time = 1.35

DILUPBiCG:  Solving for T, Initial residual = 0.00016379287, Final residual = 6.1111902e-08, No Iterations 2
DILUPBiCG:  Solving for T, Initial residual = 0.00015818592, Final residual = 6.2489755e-08, No Iterations 2
Time = 1.355

DILUPBiCG:  Solving for T, Initial residual = 0.00016375715, Final residual = 6.1151757e-08, No Iterations 2
DILUPBiCG:  Solving for T, Initial residual = 0.00015802599, Final residual = 6.2501706e-08, No Iterations 2
Time = 1.36

DILUPBiCG:  Solving for T, Initial residual = 0.00016353789, Final residual = 6.1123779e-08, No Iterations 2
DILUPBiCG:  Solving for T, Initial residual = 0.00015773113, Final residual = 6.2434319e-08, No Iterations 2
Time = 1.365

DILUPBiCG:  Solving for T, Initial residual = 0.00016332865, Final residual = 6.1068131e-08, No Iterations 2
DILUPBiCG:  Solving for T, Initial residual = 0.00015771511, Final residual = 6.2467893e-08, No Iterations 2
Time = 1.37

DILUPBiCG:  Solving for T, Initial residual = 0.00016326729, Final residual = 6.1130534e-08, No Iterations 2
DILUPBiCG:  Solving for T, Initial residual = 0.00015751728, Final residual = 6.2529376e-08, No Iterations 2
Time = 1.375

DILUPBiCG:  Solving for T, Initial residual = 0.00016310495, Final residual = 6.1197551e-08, No Iterations 2
DILUPBiCG:  Solving for T, Initial residual = 0.00015763541, Final residual = 6.2622466e-08, No Iterations 2
Time = 1.38

DILUPBiCG:  Solving for T, Initial residual = 0.0001632939, Final residual = 6.1260959e-08, No Iterations 2
DILUPBiCG:  Solving for T, Initial residual = 0.00015782476, Final residual = 6.2680688e-08, No Iterations 2
Time = 1.385

DILUPBiCG:  Solving for T, Initial residual = 0.00016340949, Final residual = 6.1308033e-08, No Iterations 2
DILUPBiCG:  Solving for T, Initial residual = 0.00015787395, Final residual = 6.2687553e-08, No Iterations 2
Time = 1.39

DILUPBiCG:  Solving for T, Initial residual = 0.00016343608, Final residual = 6.1328239e-08, No Iterations 2
DILUPBiCG:  Solving for T, Initial residual = 0.00015781051, Final residual = 6.2622448e-08, No Iterations 2
Time = 1.395

DILUPBiCG:  Solving for T, Initial residual = 0.0001633628, Final residual = 6.1287329e-08, No Iterations 2
DILUPBiCG:  Solving for T, Initial residual = 0.00015768981, Final residual = 6.2536979e-08, No Iterations 2
Time = 1.4

DILUPBiCG:  Solving for T, Initial residual = 0.00016326776, Final residual = 6.1247393e-08, No Iterations 2
DILUPBiCG:  Solving for T, Initial residual = 0.0001575592, Final residual = 6.2467332e-08, No Iterations 2
Time = 1.405

DILUPBiCG:  Solving for T, Initial residual = 0.00016310895, Final residual = 6.117569e-08, No Iterations 2
DILUPBiCG:  Solving for T, Initial residual = 0.00015731431, Final residual = 6.2341013e-08, No Iterations 2
Time = 1.41

DILUPBiCG:  Solving for T, Initial residual = 0.00016287443, Final residual = 6.1068203e-08, No Iterations 2
DILUPBiCG:  Solving for T, Initial residual = 0.00015708234, Final residual = 6.2199321e-08, No Iterations 2
Time = 1.415

DILUPBiCG:  Solving for T, Initial residual = 0.00016264835, Final residual = 6.0947177e-08, No Iterations 2
DILUPBiCG:  Solving for T, Initial residual = 0.00015679608, Final residual = 6.2037467e-08, No Iterations 2
Time = 1.42

DILUPBiCG:  Solving for T, Initial residual = 0.00016234974, Final residual = 6.0806601e-08, No Iterations 2
DILUPBiCG:  Solving for T, Initial residual = 0.00015647998, Final residual = 6.1861676e-08, No Iterations 2
Time = 1.425

DILUPBiCG:  Solving for T, Initial residual = 0.00016201884, Final residual = 6.0680408e-08, No Iterations 2
DILUPBiCG:  Solving for T, Initial residual = 0.0001561075, Final residual = 6.1735838e-08, No Iterations 2
Time = 1.43

DILUPBiCG:  Solving for T, Initial residual = 0.00016169626, Final residual = 6.0632719e-08, No Iterations 2
DILUPBiCG:  Solving for T, Initial residual = 0.00015601511, Final residual = 6.169235e-08, No Iterations 2
Time = 1.435

DILUPBiCG:  Solving for T, Initial residual = 0.00016170096, Final residual = 6.0642191e-08, No Iterations 2
DILUPBiCG:  Solving for T, Initial residual = 0.00015610514, Final residual = 6.1704257e-08, No Iterations 2
Time = 1.44

DILUPBiCG:  Solving for T, Initial residual = 0.00016176484, Final residual = 6.0657875e-08, No Iterations 2
DILUPBiCG:  Solving for T, Initial residual = 0.00015609673, Final residual = 6.1652981e-08, No Iterations 2
Time = 1.445

DILUPBiCG:  Solving for T, Initial residual = 0.0001617503, Final residual = 6.0638831e-08, No Iterations 2
DILUPBiCG:  Solving for T, Initial residual = 0.00015608148, Final residual = 6.1552831e-08, No Iterations 2
Time = 1.45

DILUPBiCG:  Solving for T, Initial residual = 0.00016173287, Final residual = 6.0638725e-08, No Iterations 2
DILUPBiCG:  Solving for T, Initial residual = 0.00015604421, Final residual = 6.1464165e-08, No Iterations 2
Time = 1.455

DILUPBiCG:  Solving for T, Initial residual = 0.00016164869, Final residual = 6.0630669e-08, No Iterations 2
DILUPBiCG:  Solving for T, Initial residual = 0.00015590959, Final residual = 6.1344925e-08, No Iterations 2
Time = 1.46

DILUPBiCG:  Solving for T, Initial residual = 0.00016152461, Final residual = 6.0619314e-08, No Iterations 2
DILUPBiCG:  Solving for T, Initial residual = 0.00015588654, Final residual = 6.1237068e-08, No Iterations 2
Time = 1.465

DILUPBiCG:  Solving for T, Initial residual = 0.00016155788, Final residual = 6.0689058e-08, No Iterations 2
DILUPBiCG:  Solving for T, Initial residual = 0.00015605759, Final residual = 6.120288e-08, No Iterations 2
Time = 1.47

DILUPBiCG:  Solving for T, Initial residual = 0.00016180616, Final residual = 6.082461e-08, No Iterations 2
DILUPBiCG:  Solving for T, Initial residual = 0.00015638577, Final residual = 6.1156202e-08, No Iterations 2
Time = 1.475

DILUPBiCG:  Solving for T, Initial residual = 0.00016214954, Final residual = 6.1012659e-08, No Iterations 2
DILUPBiCG:  Solving for T, Initial residual = 0.00015680133, Final residual = 6.1102726e-08, No Iterations 2
Time = 1.48

DILUPBiCG:  Solving for T, Initial residual = 0.00016255276, Final residual = 6.1236357e-08, No Iterations 2
DILUPBiCG:  Solving for T, Initial residual = 0.00015718467, Final residual = 6.103533e-08, No Iterations 2
Time = 1.485

DILUPBiCG:  Solving for T, Initial residual = 0.00016290542, Final residual = 6.1468126e-08, No Iterations 2
DILUPBiCG:  Solving for T, Initial residual = 0.00015748029, Final residual = 6.0982731e-08, No Iterations 2
Time = 1.49

DILUPBiCG:  Solving for T, Initial residual = 0.00016325524, Final residual = 6.1811232e-08, No Iterations 2
DILUPBiCG:  Solving for T, Initial residual = 0.00015799595, Final residual = 6.0982415e-08, No Iterations 2
Time = 1.495

DILUPBiCG:  Solving for T, Initial residual = 0.00016371531, Final residual = 6.213293e-08, No Iterations 2
DILUPBiCG:  Solving for T, Initial residual = 0.00015829888, Final residual = 6.0944698e-08, No Iterations 2
Time = 1.5

DILUPBiCG:  Solving for T, Initial residual = 0.00016393363, Final residual = 6.23714e-08, No Iterations 2
DILUPBiCG:  Solving for T, Initial residual = 0.00015833153, Final residual = 6.0866918e-08, No Iterations 2
Time = 1.505

DILUPBiCG:  Solving for T, Initial residual = 0.00016394149, Final residual = 6.2510478e-08, No Iterations 2
DILUPBiCG:  Solving for T, Initial residual = 0.00015856222, Final residual = 6.0895208e-08, No Iterations 2
Time = 1.51

DILUPBiCG:  Solving for T, Initial residual = 0.00016419426, Final residual = 6.2692523e-08, No Iterations 2
DILUPBiCG:  Solving for T, Initial residual = 0.00015871709, Final residual = 6.0884591e-08, No Iterations 2
Time = 1.515

DILUPBiCG:  Solving for T, Initial residual = 0.00016426688, Final residual = 6.2752078e-08, No Iterations 2
DILUPBiCG:  Solving for T, Initial residual = 0.00015856107, Final residual = 6.0857933e-08, No Iterations 2
Time = 1.52

DILUPBiCG:  Solving for T, Initial residual = 0.00016410498, Final residual = 6.2660584e-08, No Iterations 2
DILUPBiCG:  Solving for T, Initial residual = 0.00015838471, Final residual = 6.0839177e-08, No Iterations 2
Time = 1.525

DILUPBiCG:  Solving for T, Initial residual = 0.00016390876, Final residual = 6.2564293e-08, No Iterations 2
DILUPBiCG:  Solving for T, Initial residual = 0.00015810151, Final residual = 6.0841706e-08, No Iterations 2
Time = 1.53

DILUPBiCG:  Solving for T, Initial residual = 0.0001636147, Final residual = 6.2423519e-08, No Iterations 2
DILUPBiCG:  Solving for T, Initial residual = 0.00015784089, Final residual = 6.0899779e-08, No Iterations 2
Time = 1.535

DILUPBiCG:  Solving for T, Initial residual = 0.00016335539, Final residual = 6.2277623e-08, No Iterations 2
DILUPBiCG:  Solving for T, Initial residual = 0.00015758977, Final residual = 6.1031101e-08, No Iterations 2
Time = 1.54

DILUPBiCG:  Solving for T, Initial residual = 0.00016325678, Final residual = 6.2207754e-08, No Iterations 2
DILUPBiCG:  Solving for T, Initial residual = 0.00015775247, Final residual = 6.1242605e-08, No Iterations 2
Time = 1.545

DILUPBiCG:  Solving for T, Initial residual = 0.00016339377, Final residual = 6.2128913e-08, No Iterations 2
DILUPBiCG:  Solving for T, Initial residual = 0.00015783358, Final residual = 6.144961e-08, No Iterations 2
Time = 1.55

DILUPBiCG:  Solving for T, Initial residual = 0.00016338867, Final residual = 6.196481e-08, No Iterations 2
DILUPBiCG:  Solving for T, Initial residual = 0.00015774947, Final residual = 6.156861e-08, No Iterations 2
Time = 1.555

DILUPBiCG:  Solving for T, Initial residual = 0.0001633265, Final residual = 6.1838437e-08, No Iterations 2
DILUPBiCG:  Solving for T, Initial residual = 0.00015768067, Final residual = 6.1653081e-08, No Iterations 2
Time = 1.56

DILUPBiCG:  Solving for T, Initial residual = 0.00016325216, Final residual = 6.170776e-08, No Iterations 2
DILUPBiCG:  Solving for T, Initial residual = 0.0001575378, Final residual = 6.1661101e-08, No Iterations 2
Time = 1.565

DILUPBiCG:  Solving for T, Initial residual = 0.00016311351, Final residual = 6.1577158e-08, No Iterations 2
DILUPBiCG:  Solving for T, Initial residual = 0.00015736441, Final residual = 6.1677555e-08, No Iterations 2
Time = 1.57

DILUPBiCG:  Solving for T, Initial residual = 0.00016291701, Final residual = 6.1431078e-08, No Iterations 2
DILUPBiCG:  Solving for T, Initial residual = 0.00015709361, Final residual = 6.1654418e-08, No Iterations 2
Time = 1.575

DILUPBiCG:  Solving for T, Initial residual = 0.0001626364, Final residual = 6.1242827e-08, No Iterations 2
DILUPBiCG:  Solving for T, Initial residual = 0.00015680265, Final residual = 6.1610455e-08, No Iterations 2
Time = 1.58

DILUPBiCG:  Solving for T, Initial residual = 0.00016236924, Final residual = 6.1041761e-08, No Iterations 2
DILUPBiCG:  Solving for T, Initial residual = 0.00015650436, Final residual = 6.1567842e-08, No Iterations 2
Time = 1.585

DILUPBiCG:  Solving for T, Initial residual = 0.00016207973, Final residual = 6.0815285e-08, No Iterations 2
DILUPBiCG:  Solving for T, Initial residual = 0.00015625867, Final residual = 6.1543679e-08, No Iterations 2
Time = 1.59

DILUPBiCG:  Solving for T, Initial residual = 0.00016185077, Final residual = 6.0717142e-08, No Iterations 2
DILUPBiCG:  Solving for T, Initial residual = 0.0001560116, Final residual = 6.1653654e-08, No Iterations 2
Time = 1.595

DILUPBiCG:  Solving for T, Initial residual = 0.00016164627, Final residual = 6.06486e-08, No Iterations 2
DILUPBiCG:  Solving for T, Initial residual = 0.00015608989, Final residual = 6.1793267e-08, No Iterations 2
Time = 1.6

DILUPBiCG:  Solving for T, Initial residual = 0.00016178007, Final residual = 6.0631407e-08, No Iterations 2
DILUPBiCG:  Solving for T, Initial residual = 0.00015618583, Final residual = 6.189785e-08, No Iterations 2
Time = 1.605

DILUPBiCG:  Solving for T, Initial residual = 0.00016185129, Final residual = 6.0616704e-08, No Iterations 2
DILUPBiCG:  Solving for T, Initial residual = 0.00015618376, Final residual = 6.184574e-08, No Iterations 2
Time = 1.61

DILUPBiCG:  Solving for T, Initial residual = 0.00016181649, Final residual = 6.0552192e-08, No Iterations 2
DILUPBiCG:  Solving for T, Initial residual = 0.00015614392, Final residual = 6.1790662e-08, No Iterations 2
Time = 1.615

DILUPBiCG:  Solving for T, Initial residual = 0.00016176639, Final residual = 6.0472425e-08, No Iterations 2
DILUPBiCG:  Solving for T, Initial residual = 0.00015605942, Final residual = 6.1796219e-08, No Iterations 2
Time = 1.62

DILUPBiCG:  Solving for T, Initial residual = 0.00016165854, Final residual = 6.0437246e-08, No Iterations 2
DILUPBiCG:  Solving for T, Initial residual = 0.00015599489, Final residual = 6.1811116e-08, No Iterations 2
Time = 1.625

DILUPBiCG:  Solving for T, Initial residual = 0.00016170681, Final residual = 6.0419362e-08, No Iterations 2
DILUPBiCG:  Solving for T, Initial residual = 0.00015627994, Final residual = 6.1948041e-08, No Iterations 2
Time = 1.63

DILUPBiCG:  Solving for T, Initial residual = 0.00016204079, Final residual = 6.0500023e-08, No Iterations 2
DILUPBiCG:  Solving for T, Initial residual = 0.00015671741, Final residual = 6.2058844e-08, No Iterations 2
Time = 1.635

DILUPBiCG:  Solving for T, Initial residual = 0.00016251778, Final residual = 6.0621181e-08, No Iterations 2
DILUPBiCG:  Solving for T, Initial residual = 0.00015721717, Final residual = 6.2204021e-08, No Iterations 2
Time = 1.64

DILUPBiCG:  Solving for T, Initial residual = 0.00016298959, Final residual = 6.0740601e-08, No Iterations 2
DILUPBiCG:  Solving for T, Initial residual = 0.00015764907, Final residual = 6.2365869e-08, No Iterations 2
Time = 1.645

DILUPBiCG:  Solving for T, Initial residual = 0.00016338598, Final residual = 6.0902986e-08, No Iterations 2
DILUPBiCG:  Solving for T, Initial residual = 0.00015796336, Final residual = 6.2522097e-08, No Iterations 2
Time = 1.65

DILUPBiCG:  Solving for T, Initial residual = 0.00016358779, Final residual = 6.1000083e-08, No Iterations 2
DILUPBiCG:  Solving for T, Initial residual = 0.00015810966, Final residual = 6.2546179e-08, No Iterations 2
Time = 1.655

DILUPBiCG:  Solving for T, Initial residual = 0.00016378966, Final residual = 6.1030387e-08, No Iterations 2
DILUPBiCG:  Solving for T, Initial residual = 0.00015829246, Final residual = 6.2568247e-08, No Iterations 2
Time = 1.66

DILUPBiCG:  Solving for T, Initial residual = 0.00016394365, Final residual = 6.1154637e-08, No Iterations 2
DILUPBiCG:  Solving for T, Initial residual = 0.00015853959, Final residual = 6.2745992e-08, No Iterations 2
Time = 1.665

DILUPBiCG:  Solving for T, Initial residual = 0.0001641266, Final residual = 6.1269102e-08, No Iterations 2
DILUPBiCG:  Solving for T, Initial residual = 0.00015857241, Final residual = 6.2748108e-08, No Iterations 2
Time = 1.67

DILUPBiCG:  Solving for T, Initial residual = 0.00016415072, Final residual = 6.1276837e-08, No Iterations 2
DILUPBiCG:  Solving for T, Initial residual = 0.00015853751, Final residual = 6.2680813e-08, No Iterations 2
Time = 1.675

DILUPBiCG:  Solving for T, Initial residual = 0.00016410849, Final residual = 6.1309086e-08, No Iterations 2
DILUPBiCG:  Solving for T, Initial residual = 0.00015836955, Final residual = 6.2655107e-08, No Iterations 2
Time = 1.68

DILUPBiCG:  Solving for T, Initial residual = 0.00016388974, Final residual = 6.1295547e-08, No Iterations 2
DILUPBiCG:  Solving for T, Initial residual = 0.00015808737, Final residual = 6.2587401e-08, No Iterations 2
Time = 1.685

DILUPBiCG:  Solving for T, Initial residual = 0.00016362677, Final residual = 6.1244701e-08, No Iterations 2
DILUPBiCG:  Solving for T, Initial residual = 0.00015795884, Final residual = 6.2570148e-08, No Iterations 2
Time = 1.69

DILUPBiCG:  Solving for T, Initial residual = 0.0001634921, Final residual = 6.1244349e-08, No Iterations 2
DILUPBiCG:  Solving for T, Initial residual = 0.00015770262, Final residual = 6.2567386e-08, No Iterations 2
Time = 1.695

DILUPBiCG:  Solving for T, Initial residual = 0.00016331702, Final residual = 6.1259424e-08, No Iterations 2
DILUPBiCG:  Solving for T, Initial residual = 0.00015773753, Final residual = 6.2575849e-08, No Iterations 2
Time = 1.7

DILUPBiCG:  Solving for T, Initial residual = 0.00016337268, Final residual = 6.1272541e-08, No Iterations 2
DILUPBiCG:  Solving for T, Initial residual = 0.00015779896, Final residual = 6.2609077e-08, No Iterations 2
Time = 1.705

DILUPBiCG:  Solving for T, Initial residual = 0.0001633954, Final residual = 6.1288664e-08, No Iterations 2
DILUPBiCG:  Solving for T, Initial residual = 0.00015781893, Final residual = 6.2604179e-08, No Iterations 2
Time = 1.71

DILUPBiCG:  Solving for T, Initial residual = 0.00016338608, Final residual = 6.1300499e-08, No Iterations 2
[...]
DILUPBiCG:  Solving for T, Initial residual = 0.00015724483, Final residual = 6.2253373e-08, No Iterations 2
Time = 4.575

DILUPBiCG:  Solving for T, Initial residual = 0.00016279222, Final residual = 6.1026873e-08, No Iterations 2
DILUPBiCG:  Solving for T, Initial residual = 0.00015698309, Final residual = 6.2104257e-08, No Iterations 2
Time = 4.58

DILUPBiCG:  Solving for T, Initial residual = 0.00016255455, Final residual = 6.0907191e-08, No Iterations 2
DILUPBiCG:  Solving for T, Initial residual = 0.00015671158, Final residual = 6.1952886e-08, No Iterations 2
Time = 4.585

DILUPBiCG:  Solving for T, Initial residual = 0.0001622635, Final residual = 6.0763718e-08, No Iterations 2
DILUPBiCG:  Solving for T, Initial residual = 0.00015637455, Final residual = 6.1760213e-08, No Iterations 2
Time = 4.59

DILUPBiCG:  Solving for T, Initial residual = 0.00016195478, Final residual = 6.0636716e-08, No Iterations 2
DILUPBiCG:  Solving for T, Initial residual = 0.00015610185, Final residual = 6.1667982e-08, No Iterations 2
Time = 4.595

DILUPBiCG:  Solving for T, Initial residual = 0.00016169238, Final residual = 6.0629636e-08, No Iterations 2
DILUPBiCG:  Solving for T, Initial residual = 0.00015600861, Final residual = 6.1644624e-08, No Iterations 2
Time = 4.6

DILUPBiCG:  Solving for T, Initial residual = 0.00016171214, Final residual = 6.0653037e-08, No Iterations 2
DILUPBiCG:  Solving for T, Initial residual = 0.00015614106, Final residual = 6.1672318e-08, No Iterations 2
Time = 4.605

DILUPBiCG:  Solving for T, Initial residual = 0.00016181564, Final residual = 6.0694925e-08, No Iterations 2
DILUPBiCG:  Solving for T, Initial residual = 0.00015617244, Final residual = 6.1615665e-08, No Iterations 2
Time = 4.61

DILUPBiCG:  Solving for T, Initial residual = 0.00016181869, Final residual = 6.0696865e-08, No Iterations 2
DILUPBiCG:  Solving for T, Initial residual = 0.0001561476, Final residual = 6.149882e-08, No Iterations 2
Time = 4.615

DILUPBiCG:  Solving for T, Initial residual = 0.00016178474, Final residual = 6.0681232e-08, No Iterations 2
DILUPBiCG:  Solving for T, Initial residual = 0.00015609484, Final residual = 6.1387712e-08, No Iterations 2
Time = 4.62

DILUPBiCG:  Solving for T, Initial residual = 0.00016169141, Final residual = 6.0682553e-08, No Iterations 2
DILUPBiCG:  Solving for T, Initial residual = 0.00015594551, Final residual = 6.1261527e-08, No Iterations 2
Time = 4.625

DILUPBiCG:  Solving for T, Initial residual = 0.0001615532, Final residual = 6.0716156e-08, No Iterations 2
DILUPBiCG:  Solving for T, Initial residual = 0.00015602126, Final residual = 6.1167685e-08, No Iterations 2
Time = 4.63

DILUPBiCG:  Solving for T, Initial residual = 0.00016175452, Final residual = 6.0823434e-08, No Iterations 2
DILUPBiCG:  Solving for T, Initial residual = 0.00015634709, Final residual = 6.1133347e-08, No Iterations 2
Time = 4.635

DILUPBiCG:  Solving for T, Initial residual = 0.00016213381, Final residual = 6.1036618e-08, No Iterations 2
DILUPBiCG:  Solving for T, Initial residual = 0.00015681065, Final residual = 6.108228e-08, No Iterations 2
Time = 4.64

DILUPBiCG:  Solving for T, Initial residual = 0.00016258884, Final residual = 6.1280206e-08, No Iterations 2
DILUPBiCG:  Solving for T, Initial residual = 0.00015725926, Final residual = 6.1028426e-08, No Iterations 2
Time = 4.645

DILUPBiCG:  Solving for T, Initial residual = 0.00016302332, Final residual = 6.1556556e-08, No Iterations 2
DILUPBiCG:  Solving for T, Initial residual = 0.000157666, Final residual = 6.100598e-08, No Iterations 2
Time = 4.65

DILUPBiCG:  Solving for T, Initial residual = 0.0001633841, Final residual = 6.1886097e-08, No Iterations 2
DILUPBiCG:  Solving for T, Initial residual = 0.00015792294, Final residual = 6.0971382e-08, No Iterations 2
Time = 4.655

DILUPBiCG:  Solving for T, Initial residual = 0.00016359463, Final residual = 6.2162329e-08, No Iterations 2
DILUPBiCG:  Solving for T, Initial residual = 0.00015818592, Final residual = 6.0828389e-08, No Iterations 2
Time = 4.66

DILUPBiCG:  Solving for T, Initial residual = 0.00016386149, Final residual = 6.2356324e-08, No Iterations 2
DILUPBiCG:  Solving for T, Initial residual = 0.00015833763, Final residual = 6.0813733e-08, No Iterations 2
Time = 4.665

DILUPBiCG:  Solving for T, Initial residual = 0.00016397548, Final residual = 6.2549259e-08, No Iterations 2
DILUPBiCG:  Solving for T, Initial residual = 0.00015854667, Final residual = 6.0856912e-08, No Iterations 2
Time = 4.67

DILUPBiCG:  Solving for T, Initial residual = 0.00016411375, Final residual = 6.2693536e-08, No Iterations 2
DILUPBiCG:  Solving for T, Initial residual = 0.00015860756, Final residual = 6.0792371e-08, No Iterations 2
Time = 4.675

DILUPBiCG:  Solving for T, Initial residual = 0.00016418906, Final residual = 6.271621e-08, No Iterations 2
DILUPBiCG:  Solving for T, Initial residual = 0.00015854696, Final residual = 6.0785789e-08, No Iterations 2
Time = 4.68

DILUPBiCG:  Solving for T, Initial residual = 0.00016409554, Final residual = 6.2660758e-08, No Iterations 2
DILUPBiCG:  Solving for T, Initial residual = 0.00015830507, Final residual = 6.080889e-08, No Iterations 2
Time = 4.685

DILUPBiCG:  Solving for T, Initial residual = 0.00016382915, Final residual = 6.2533299e-08, No Iterations 2
DILUPBiCG:  Solving for T, Initial residual = 0.00015807239, Final residual = 6.0829472e-08, No Iterations 2
Time = 4.69

DILUPBiCG:  Solving for T, Initial residual = 0.00016362415, Final residual = 6.2441623e-08, No Iterations 2
DILUPBiCG:  Solving for T, Initial residual = 0.0001579382, Final residual = 6.0923935e-08, No Iterations 2
Time = 4.695

DILUPBiCG:  Solving for T, Initial residual = 0.00016344444, Final residual = 6.2340158e-08, No Iterations 2
DILUPBiCG:  Solving for T, Initial residual = 0.00015765777, Final residual = 6.1032189e-08, No Iterations 2
Time = 4.7

DILUPBiCG:  Solving for T, Initial residual = 0.00016329802, Final residual = 6.2227438e-08, No Iterations 2
DILUPBiCG:  Solving for T, Initial residual = 0.00015771895, Final residual = 6.1213306e-08, No Iterations 2
Time = 4.705

DILUPBiCG:  Solving for T, Initial residual = 0.00016337323, Final residual = 6.2132155e-08, No Iterations 2
DILUPBiCG:  Solving for T, Initial residual = 0.00015784013, Final residual = 6.1441096e-08, No Iterations 2
Time = 4.71

DILUPBiCG:  Solving for T, Initial residual = 0.00016340221, Final residual = 6.1992522e-08, No Iterations 2
DILUPBiCG:  Solving for T, Initial residual = 0.00015779988, Final residual = 6.1582912e-08, No Iterations 2
Time = 4.715

DILUPBiCG:  Solving for T, Initial residual = 0.00016337701, Final residual = 6.1876985e-08, No Iterations 2
DILUPBiCG:  Solving for T, Initial residual = 0.00015774731, Final residual = 6.1676153e-08, No Iterations 2
Time = 4.72

DILUPBiCG:  Solving for T, Initial residual = 0.00016331731, Final residual = 6.174771e-08, No Iterations 2
DILUPBiCG:  Solving for T, Initial residual = 0.0001575998, Final residual = 6.1686583e-08, No Iterations 2
Time = 4.725

DILUPBiCG:  Solving for T, Initial residual = 0.00016316256, Final residual = 6.1603939e-08, No Iterations 2
DILUPBiCG:  Solving for T, Initial residual = 0.00015738772, Final residual = 6.1688285e-08, No Iterations 2
Time = 4.73

DILUPBiCG:  Solving for T, Initial residual = 0.00016295711, Final residual = 6.1462073e-08, No Iterations 2
DILUPBiCG:  Solving for T, Initial residual = 0.00015716045, Final residual = 6.1686423e-08, No Iterations 2
Time = 4.735

DILUPBiCG:  Solving for T, Initial residual = 0.00016270053, Final residual = 6.1285836e-08, No Iterations 2
DILUPBiCG:  Solving for T, Initial residual = 0.00015688618, Final residual = 6.1647838e-08, No Iterations 2
Time = 4.74

DILUPBiCG:  Solving for T, Initial residual = 0.0001624541, Final residual = 6.1093465e-08, No Iterations 2
DILUPBiCG:  Solving for T, Initial residual = 0.00015659093, Final residual = 6.1609889e-08, No Iterations 2
Time = 4.745

DILUPBiCG:  Solving for T, Initial residual = 0.00016214596, Final residual = 6.0867877e-08, No Iterations 2
DILUPBiCG:  Solving for T, Initial residual = 0.00015629238, Final residual = 6.1554647e-08, No Iterations 2
Time = 4.75

DILUPBiCG:  Solving for T, Initial residual = 0.00016187131, Final residual = 6.0722887e-08, No Iterations 2
DILUPBiCG:  Solving for T, Initial residual = 0.00015601195, Final residual = 6.1643364e-08, No Iterations 2
Time = 4.755

DILUPBiCG:  Solving for T, Initial residual = 0.0001616256, Final residual = 6.0648114e-08, No Iterations 2
DILUPBiCG:  Solving for T, Initial residual = 0.00015606827, Final residual = 6.1779986e-08, No Iterations 2
Time = 4.76

DILUPBiCG:  Solving for T, Initial residual = 0.00016176086, Final residual = 6.0626397e-08, No Iterations 2
DILUPBiCG:  Solving for T, Initial residual = 0.00015617265, Final residual = 6.190219e-08, No Iterations 2
Time = 4.765

DILUPBiCG:  Solving for T, Initial residual = 0.00016183964, Final residual = 6.0615808e-08, No Iterations 2
DILUPBiCG:  Solving for T, Initial residual = 0.00015617338, Final residual = 6.1854655e-08, No Iterations 2
Time = 4.77

DILUPBiCG:  Solving for T, Initial residual = 0.00016181652, Final residual = 6.0557233e-08, No Iterations 2
DILUPBiCG:  Solving for T, Initial residual = 0.00015614585, Final residual = 6.1796262e-08, No Iterations 2
Time = 4.775

DILUPBiCG:  Solving for T, Initial residual = 0.00016176987, Final residual = 6.0483506e-08, No Iterations 2
DILUPBiCG:  Solving for T, Initial residual = 0.0001560595, Final residual = 6.1801542e-08, No Iterations 2
Time = 4.78

DILUPBiCG:  Solving for T, Initial residual = 0.00016165995, Final residual = 6.042305e-08, No Iterations 2
DILUPBiCG:  Solving for T, Initial residual = 0.00015591564, Final residual = 6.1801335e-08, No Iterations 2
Time = 4.785

DILUPBiCG:  Solving for T, Initial residual = 0.00016158617, Final residual = 6.039603e-08, No Iterations 2
DILUPBiCG:  Solving for T, Initial residual = 0.00015615026, Final residual = 6.190246e-08, No Iterations 2
Time = 4.79

DILUPBiCG:  Solving for T, Initial residual = 0.00016189557, Final residual = 6.045087e-08, No Iterations 2
DILUPBiCG:  Solving for T, Initial residual = 0.00015653367, Final residual = 6.201715e-08, No Iterations 2
Time = 4.795

DILUPBiCG:  Solving for T, Initial residual = 0.00016232685, Final residual = 6.0567367e-08, No Iterations 2
DILUPBiCG:  Solving for T, Initial residual = 0.00015701005, Final residual = 6.2150131e-08, No Iterations 2
Time = 4.8

DILUPBiCG:  Solving for T, Initial residual = 0.00016278134, Final residual = 6.0684051e-08, No Iterations 2
DILUPBiCG:  Solving for T, Initial residual = 0.00015744614, Final residual = 6.2278572e-08, No Iterations 2
Time = 4.805

DILUPBiCG:  Solving for T, Initial residual = 0.00016319263, Final residual = 6.0820813e-08, No Iterations 2
DILUPBiCG:  Solving for T, Initial residual = 0.00015780077, Final residual = 6.2448125e-08, No Iterations 2
Time = 4.81

DILUPBiCG:  Solving for T, Initial residual = 0.00016347999, Final residual = 6.0953311e-08, No Iterations 2
DILUPBiCG:  Solving for T, Initial residual = 0.00015804602, Final residual = 6.2563658e-08, No Iterations 2
Time = 4.815

DILUPBiCG:  Solving for T, Initial residual = 0.00016373392, Final residual = 6.1026183e-08, No Iterations 2
DILUPBiCG:  Solving for T, Initial residual = 0.00015827532, Final residual = 6.257961e-08, No Iterations 2
Time = 4.82

DILUPBiCG:  Solving for T, Initial residual = 0.00016393527, Final residual = 6.1123656e-08, No Iterations 2
DILUPBiCG:  Solving for T, Initial residual = 0.00015841271, Final residual = 6.2671558e-08, No Iterations 2
Time = 4.825

DILUPBiCG:  Solving for T, Initial residual = 0.00016406385, Final residual = 6.1225585e-08, No Iterations 2
DILUPBiCG:  Solving for T, Initial residual = 0.0001586148, Final residual = 6.2792614e-08, No Iterations 2
Time = 4.83

DILUPBiCG:  Solving for T, Initial residual = 0.00016416987, Final residual = 6.128215e-08, No Iterations 2
DILUPBiCG:  Solving for T, Initial residual = 0.0001586025, Final residual = 6.2705874e-08, No Iterations 2
Time = 4.835

DILUPBiCG:  Solving for T, Initial residual = 0.00016417917, Final residual = 6.1314039e-08, No Iterations 2
DILUPBiCG:  Solving for T, Initial residual = 0.00015847805, Final residual = 6.2678192e-08, No Iterations 2
Time = 4.84

DILUPBiCG:  Solving for T, Initial residual = 0.00016400774, Final residual = 6.1315363e-08, No Iterations 2
DILUPBiCG:  Solving for T, Initial residual = 0.00015821165, Final residual = 6.2616605e-08, No Iterations 2
Time = 4.845

DILUPBiCG:  Solving for T, Initial residual = 0.00016374146, Final residual = 6.1261605e-08, No Iterations 2
DILUPBiCG:  Solving for T, Initial residual = 0.00015803616, Final residual = 6.2563292e-08, No Iterations 2
Time = 4.85

DILUPBiCG:  Solving for T, Initial residual = 0.00016359511, Final residual = 6.1254077e-08, No Iterations 2
DILUPBiCG:  Solving for T, Initial residual = 0.00015785379, Final residual = 6.2554576e-08, No Iterations 2
Time = 4.855

DILUPBiCG:  Solving for T, Initial residual = 0.00016334039, Final residual = 6.1234515e-08, No Iterations 2
DILUPBiCG:  Solving for T, Initial residual = 0.00015766456, Final residual = 6.253429e-08, No Iterations 2
Time = 4.86

DILUPBiCG:  Solving for T, Initial residual = 0.00016330746, Final residual = 6.125111e-08, No Iterations 2
DILUPBiCG:  Solving for T, Initial residual = 0.00015773627, Final residual = 6.2572066e-08, No Iterations 2
Time = 4.865

DILUPBiCG:  Solving for T, Initial residual = 0.00016337753, Final residual = 6.1277248e-08, No Iterations 2
DILUPBiCG:  Solving for T, Initial residual = 0.00015783007, Final residual = 6.2623586e-08, No Iterations 2
Time = 4.87

DILUPBiCG:  Solving for T, Initial residual = 0.00016337665, Final residual = 6.1293944e-08, No Iterations 2
DILUPBiCG:  Solving for T, Initial residual = 0.00015779165, Final residual = 6.2578015e-08, No Iterations 2
Time = 4.875

DILUPBiCG:  Solving for T, Initial residual = 0.00016336752, Final residual = 6.1281703e-08, No Iterations 2
DILUPBiCG:  Solving for T, Initial residual = 0.0001576986, Final residual = 6.2498733e-08, No Iterations 2
Time = 4.88

DILUPBiCG:  Solving for T, Initial residual = 0.0001632643, Final residual = 6.1221349e-08, No Iterations 2
DILUPBiCG:  Solving for T, Initial residual = 0.00015751816, Final residual = 6.2388897e-08, No Iterations 2
Time = 4.885

DILUPBiCG:  Solving for T, Initial residual = 0.00016307774, Final residual = 6.1149453e-08, No Iterations 2
DILUPBiCG:  Solving for T, Initial residual = 0.00015730393, Final residual = 6.2279904e-08, No Iterations 2
Time = 4.89

DILUPBiCG:  Solving for T, Initial residual = 0.00016285852, Final residual = 6.105621e-08, No Iterations 2
DILUPBiCG:  Solving for T, Initial residual = 0.00015704321, Final residual = 6.2139727e-08, No Iterations 2
Time = 4.895

DILUPBiCG:  Solving for T, Initial residual = 0.00016261776, Final residual = 6.0940715e-08, No Iterations 2
DILUPBiCG:  Solving for T, Initial residual = 0.00015679113, Final residual = 6.1992191e-08, No Iterations 2
Time = 4.9

DILUPBiCG:  Solving for T, Initial residual = 0.0001623461, Final residual = 6.0805995e-08, No Iterations 2
DILUPBiCG:  Solving for T, Initial residual = 0.00015646422, Final residual = 6.1808609e-08, No Iterations 2
Time = 4.905

DILUPBiCG:  Solving for T, Initial residual = 0.0001620348, Final residual = 6.0655035e-08, No Iterations 2
DILUPBiCG:  Solving for T, Initial residual = 0.00015619371, Final residual = 6.1673259e-08, No Iterations 2
Time = 4.91

DILUPBiCG:  Solving for T, Initial residual = 0.0001617754, Final residual = 6.0633889e-08, No Iterations 2
DILUPBiCG:  Solving for T, Initial residual = 0.0001559595, Final residual = 6.1636408e-08, No Iterations 2
Time = 4.915

DILUPBiCG:  Solving for T, Initial residual = 0.00016166888, Final residual = 6.0636476e-08, No Iterations 2
DILUPBiCG:  Solving for T, Initial residual = 0.00015610952, Final residual = 6.1662704e-08, No Iterations 2
Time = 4.92

DILUPBiCG:  Solving for T, Initial residual = 0.0001617929, Final residual = 6.0691897e-08, No Iterations 2
DILUPBiCG:  Solving for T, Initial residual = 0.00015617537, Final residual = 6.163238e-08, No Iterations 2
Time = 4.925

DILUPBiCG:  Solving for T, Initial residual = 0.00016183027, Final residual = 6.0706555e-08, No Iterations 2
DILUPBiCG:  Solving for T, Initial residual = 0.00015615616, Final residual = 6.1527088e-08, No Iterations 2
Time = 4.93

DILUPBiCG:  Solving for T, Initial residual = 0.00016179638, Final residual = 6.0694166e-08, No Iterations 2
DILUPBiCG:  Solving for T, Initial residual = 0.00015611838, Final residual = 6.1392819e-08, No Iterations 2
Time = 4.935

DILUPBiCG:  Solving for T, Initial residual = 0.00016172719, Final residual = 6.0685125e-08, No Iterations 2
DILUPBiCG:  Solving for T, Initial residual = 0.00015599531, Final residual = 6.1287617e-08, No Iterations 2
Time = 4.94

DILUPBiCG:  Solving for T, Initial residual = 0.00016159618, Final residual = 6.0714961e-08, No Iterations 2
DILUPBiCG:  Solving for T, Initial residual = 0.00015596462, Final residual = 6.1176519e-08, No Iterations 2
Time = 4.945

DILUPBiCG:  Solving for T, Initial residual = 0.00016169743, Final residual = 6.0801973e-08, No Iterations 2
DILUPBiCG:  Solving for T, Initial residual = 0.00015628087, Final residual = 6.1129454e-08, No Iterations 2
Time = 4.95

DILUPBiCG:  Solving for T, Initial residual = 0.00016205444, Final residual = 6.0997638e-08, No Iterations 2
DILUPBiCG:  Solving for T, Initial residual = 0.00015673044, Final residual = 6.1081351e-08, No Iterations 2
Time = 4.955

DILUPBiCG:  Solving for T, Initial residual = 0.00016251975, Final residual = 6.1245814e-08, No Iterations 2
DILUPBiCG:  Solving for T, Initial residual = 0.00015720126, Final residual = 6.1029868e-08, No Iterations 2
Time = 4.96

DILUPBiCG:  Solving for T, Initial residual = 0.00016296947, Final residual = 6.1520245e-08, No Iterations 2
DILUPBiCG:  Solving for T, Initial residual = 0.00015762119, Final residual = 6.1005772e-08, No Iterations 2
Time = 4.965

DILUPBiCG:  Solving for T, Initial residual = 0.00016335064, Final residual = 6.1848676e-08, No Iterations 2
DILUPBiCG:  Solving for T, Initial residual = 0.00015791256, Final residual = 6.0969077e-08, No Iterations 2
Time = 4.97

DILUPBiCG:  Solving for T, Initial residual = 0.00016353946, Final residual = 6.2131868e-08, No Iterations 2
DILUPBiCG:  Solving for T, Initial residual = 0.00015813396, Final residual = 6.0827383e-08, No Iterations 2
Time = 4.975

DILUPBiCG:  Solving for T, Initial residual = 0.00016381276, Final residual = 6.2321053e-08, No Iterations 2
DILUPBiCG:  Solving for T, Initial residual = 0.00015830865, Final residual = 6.0798348e-08, No Iterations 2
Time = 4.98

DILUPBiCG:  Solving for T, Initial residual = 0.00016394966, Final residual = 6.2522482e-08, No Iterations 2
DILUPBiCG:  Solving for T, Initial residual = 0.00015852616, Final residual = 6.0847816e-08, No Iterations 2
Time = 4.985

DILUPBiCG:  Solving for T, Initial residual = 0.00016411023, Final residual = 6.2687354e-08, No Iterations 2
DILUPBiCG:  Solving for T, Initial residual = 0.00015859668, Final residual = 6.0800761e-08, No Iterations 2
Time = 4.99

DILUPBiCG:  Solving for T, Initial residual = 0.00016417789, Final residual = 6.271418e-08, No Iterations 2
DILUPBiCG:  Solving for T, Initial residual = 0.00015855863, Final residual = 6.0767532e-08, No Iterations 2
Time = 4.995

DILUPBiCG:  Solving for T, Initial residual = 0.00016412129, Final residual = 6.2674728e-08, No Iterations 2
DILUPBiCG:  Solving for T, Initial residual = 0.00015836238, Final residual = 6.0794798e-08, No Iterations 2
Time = 5

DILUPBiCG:  Solving for T, Initial residual = 0.00016387735, Final residual = 6.2559745e-08, No Iterations 2
DILUPBiCG:  Solving for T, Initial residual = 0.00015810678, Final residual = 6.0823828e-08, No Iterations 2
End

