/*---------------------------------------------------------------------------*\
  =========                 |
  \\      /  F ield         | OpenFOAM: The Open Source CFD Toolbox
   \\    /   O peration     | Website:  https://openfoam.org
    \\  /    A nd           | Version:  9
     \\/     M anipulation  |
\*---------------------------------------------------------------------------*/
Build  : 9-710dba47639b
Exec   : scalarTransportFoam
Date   : May 10 2024
Time   : 14:41:03
Host   : "dyfluid-virtual-machine"
PID    : 963416
I/O    : uncollated
Case   : /home/dyfluid/case/one-muti
nProcs : 1
sigFpe : Enabling floating point exception trapping (FOAM_SIGFPE).
fileModificationChecking : Monitoring run-time modified files using timeStampMaster (fileModificationSkew 10)
allowSystemOperations : Allowing user-supplied system call operations

// * * * * * * * * * * * * * * * * * * * * * * * * * * * * * * * * * * * * * //
Create time

Create mesh for time = 0


SIMPLE: No convergence criteria found

Reading field T

Reading field U

Reading transportProperties

Reading diffusivity DT

Reading/calculating face flux field phi

No fvModels present
No fvConstraints present

Calculating scalar transport

Courant Number mean: 0.6 max: 0.6
Time = 0.005

DILUPBiCG:  Solving for T, Initial residual = 1, Final residual = 4.1636871e-16, No Iterations 1
DILUPBiCG:  Solving for T, Initial residual = 1.3275433e-16, Final residual = 1.3275433e-16, No Iterations 0
Time = 0.01

DILUPBiCG:  Solving for T, Initial residual = 0.20611093, Final residual = 2.7757385e-16, No Iterations 1
DILUPBiCG:  Solving for T, Initial residual = 1.8721044e-16, Final residual = 1.8721044e-16, No Iterations 0
Time = 0.015

DILUPBiCG:  Solving for T, Initial residual = 0.11738088, Final residual = 1.2306907e-16, No Iterations 1
DILUPBiCG:  Solving for T, Initial residual = 8.9556326e-17, Final residual = 8.9556326e-17, No Iterations 0
Time = 0.02

DILUPBiCG:  Solving for T, Initial residual = 0.081996286, Final residual = 1.5823546e-17, No Iterations 1
DILUPBiCG:  Solving for T, Initial residual = 3.173815e-17, Final residual = 3.173815e-17, No Iterations 0
Time = 0.025

DILUPBiCG:  Solving for T, Initial residual = 0.063252611, Final residual = 1.4152e-16, No Iterations 1
DILUPBiCG:  Solving for T, Initial residual = 1.2244757e-16, Final residual = 1.2244757e-16, No Iterations 0
Time = 0.03

DILUPBiCG:  Solving for T, Initial residual = 0.051509272, Final residual = 1.2599324e-16, No Iterations 1
DILUPBiCG:  Solving for T, Initial residual = 1.0775034e-16, Final residual = 1.0775034e-16, No Iterations 0
Time = 0.035

DILUPBiCG:  Solving for T, Initial residual = 0.043543373, Final residual = 2.5825188e-15, No Iterations 1
DILUPBiCG:  Solving for T, Initial residual = 2.3208996e-15, Final residual = 2.3208996e-15, No Iterations 0
Time = 0.04

DILUPBiCG:  Solving for T, Initial residual = 0.037745932, Final residual = 3.194494e-17, No Iterations 1
DILUPBiCG:  Solving for T, Initial residual = 4.5417783e-17, Final residual = 4.5417783e-17, No Iterations 0
Time = 0.045

DILUPBiCG:  Solving for T, Initial residual = 0.033350433, Final residual = 5.2316308e-17, No Iterations 1
DILUPBiCG:  Solving for T, Initial residual = 5.6787482e-17, Final residual = 5.6787482e-17, No Iterations 0
Time = 0.05

DILUPBiCG:  Solving for T, Initial residual = 0.029882387, Final residual = 1.193475e-16, No Iterations 1
DILUPBiCG:  Solving for T, Initial residual = 1.2060207e-16, Final residual = 1.2060207e-16, No Iterations 0
Time = 0.055

DILUPBiCG:  Solving for T, Initial residual = 0.027095818, Final residual = 3.6433511e-17, No Iterations 1
DILUPBiCG:  Solving for T, Initial residual = 4.9321568e-17, Final residual = 4.9321568e-17, No Iterations 0
Time = 0.06

DILUPBiCG:  Solving for T, Initial residual = 0.024803966, Final residual = 3.6578091e-17, No Iterations 1
DILUPBiCG:  Solving for T, Initial residual = 4.6553985e-17, Final residual = 4.6553985e-17, No Iterations 0
Time = 0.065

DILUPBiCG:  Solving for T, Initial residual = 0.022869715, Final residual = 3.8309703e-17, No Iterations 1
DILUPBiCG:  Solving for T, Initial residual = 4.7174905e-17, Final residual = 4.7174905e-17, No Iterations 0
Time = 0.07

DILUPBiCG:  Solving for T, Initial residual = 0.021235579, Final residual = 9.2472036e-17, No Iterations 1
DILUPBiCG:  Solving for T, Initial residual = 9.0427432e-17, Final residual = 9.0427432e-17, No Iterations 0
Time = 0.075

DILUPBiCG:  Solving for T, Initial residual = 0.019828569, Final residual = 7.0509234e-17, No Iterations 1
DILUPBiCG:  Solving for T, Initial residual = 7.5864823e-17, Final residual = 7.5864823e-17, No Iterations 0
Time = 0.08

DILUPBiCG:  Solving for T, Initial residual = 0.018594512, Final residual = 4.4212006e-18, No Iterations 1
DILUPBiCG:  Solving for T, Initial residual = 3.805964e-17, Final residual = 3.805964e-17, No Iterations 0
Time = 0.085

DILUPBiCG:  Solving for T, Initial residual = 0.017521636, Final residual = 3.4248838e-18, No Iterations 1
DILUPBiCG:  Solving for T, Initial residual = 3.6444883e-17, Final residual = 3.6444883e-17, No Iterations 0
Time = 0.09

DILUPBiCG:  Solving for T, Initial residual = 0.016569534, Final residual = 1.8043384e-17, No Iterations 1
DILUPBiCG:  Solving for T, Initial residual = 4.0862539e-17, Final residual = 4.0862539e-17, No Iterations 0
Time = 0.095

DILUPBiCG:  Solving for T, Initial residual = 0.015712621, Final residual = 1.3754026e-17, No Iterations 1
DILUPBiCG:  Solving for T, Initial residual = 3.9122214e-17, Final residual = 3.9122214e-17, No Iterations 0
Time = 0.1

DILUPBiCG:  Solving for T, Initial residual = 0.014954773, Final residual = 3.6581937e-17, No Iterations 1
DILUPBiCG:  Solving for T, Initial residual = 5.5984433e-17, Final residual = 5.5984433e-17, No Iterations 0
Time = 0.105

DILUPBiCG:  Solving for T, Initial residual = 0.014264687, Final residual = 4.8285708e-18, No Iterations 1
DILUPBiCG:  Solving for T, Initial residual = 3.898658e-17, Final residual = 3.898658e-17, No Iterations 0
Time = 0.11

DILUPBiCG:  Solving for T, Initial residual = 0.013636409, Final residual = 8.167114e-17, No Iterations 1
DILUPBiCG:  Solving for T, Initial residual = 9.3955496e-17, Final residual = 9.3955496e-17, No Iterations 0
Time = 0.115

DILUPBiCG:  Solving for T, Initial residual = 0.013068196, Final residual = 3.1397689e-18, No Iterations 1
DILUPBiCG:  Solving for T, Initial residual = 4.0006533e-17, Final residual = 4.0006533e-17, No Iterations 0
Time = 0.12

DILUPBiCG:  Solving for T, Initial residual = 0.01254778, Final residual = 2.3702614e-17, No Iterations 1
DILUPBiCG:  Solving for T, Initial residual = 4.6816254e-17, Final residual = 4.6816254e-17, No Iterations 0
Time = 0.125

DILUPBiCG:  Solving for T, Initial residual = 0.012067889, Final residual = 3.2087583e-17, No Iterations 1
DILUPBiCG:  Solving for T, Initial residual = 5.6061271e-17, Final residual = 5.6061271e-17, No Iterations 0
Time = 0.13

DILUPBiCG:  Solving for T, Initial residual = 0.011624468, Final residual = 4.1125054e-17, No Iterations 1
DILUPBiCG:  Solving for T, Initial residual = 6.2777749e-17, Final residual = 6.2777749e-17, No Iterations 0
Time = 0.135

DILUPBiCG:  Solving for T, Initial residual = 0.011218516, Final residual = 2.9648741e-17, No Iterations 1
DILUPBiCG:  Solving for T, Initial residual = 5.222985e-17, Final residual = 5.222985e-17, No Iterations 0
Time = 0.14

DILUPBiCG:  Solving for T, Initial residual = 0.010840302, Final residual = 4.7331552e-18, No Iterations 1
DILUPBiCG:  Solving for T, Initial residual = 4.2895754e-17, Final residual = 4.2895754e-17, No Iterations 0
Time = 0.145

DILUPBiCG:  Solving for T, Initial residual = 0.010483761, Final residual = 1.3210411e-18, No Iterations 1
DILUPBiCG:  Solving for T, Initial residual = 4.1932734e-17, Final residual = 4.1932734e-17, No Iterations 0
Time = 0.15

DILUPBiCG:  Solving for T, Initial residual = 0.010156717, Final residual = 1.345845e-17, No Iterations 1
DILUPBiCG:  Solving for T, Initial residual = 4.1613857e-17, Final residual = 4.1613857e-17, No Iterations 0
Time = 0.155

DILUPBiCG:  Solving for T, Initial residual = 0.009849051, Final residual = 6.463554e-17, No Iterations 1
DILUPBiCG:  Solving for T, Initial residual = 8.1860471e-17, Final residual = 8.1860471e-17, No Iterations 0
Time = 0.16

DILUPBiCG:  Solving for T, Initial residual = 0.0095591344, Final residual = 1.9011583e-17, No Iterations 1
DILUPBiCG:  Solving for T, Initial residual = 4.7694511e-17, Final residual = 4.7694511e-17, No Iterations 0
Time = 0.165

DILUPBiCG:  Solving for T, Initial residual = 0.0092873569, Final residual = 4.3093307e-17, No Iterations 1
DILUPBiCG:  Solving for T, Initial residual = 6.5892645e-17, Final residual = 6.5892645e-17, No Iterations 0
Time = 0.17

DILUPBiCG:  Solving for T, Initial residual = 0.0090339423, Final residual = 5.8743957e-18, No Iterations 1
DILUPBiCG:  Solving for T, Initial residual = 4.0235405e-17, Final residual = 4.0235405e-17, No Iterations 0
Time = 0.175

DILUPBiCG:  Solving for T, Initial residual = 0.0087935983, Final residual = 2.5342089e-17, No Iterations 1
DILUPBiCG:  Solving for T, Initial residual = 5.354825e-17, Final residual = 5.354825e-17, No Iterations 0
Time = 0.18

DILUPBiCG:  Solving for T, Initial residual = 0.008563644, Final residual = 2.7576218e-17, No Iterations 1
DILUPBiCG:  Solving for T, Initial residual = 5.6105641e-17, Final residual = 5.6105641e-17, No Iterations 0
Time = 0.185

DILUPBiCG:  Solving for T, Initial residual = 0.0083497177, Final residual = 1.3030946e-17, No Iterations 1
DILUPBiCG:  Solving for T, Initial residual = 4.5355354e-17, Final residual = 4.5355354e-17, No Iterations 0
Time = 0.19

DILUPBiCG:  Solving for T, Initial residual = 0.0081460132, Final residual = 9.1103263e-18, No Iterations 1
DILUPBiCG:  Solving for T, Initial residual = 4.3737267e-17, Final residual = 4.3737267e-17, No Iterations 0
Time = 0.195

DILUPBiCG:  Solving for T, Initial residual = 0.007951329, Final residual = 1.7541508e-17, No Iterations 1
DILUPBiCG:  Solving for T, Initial residual = 4.6573506e-17, Final residual = 4.6573506e-17, No Iterations 0
Time = 0.2

DILUPBiCG:  Solving for T, Initial residual = 0.0077663537, Final residual = 3.7144136e-17, No Iterations 1
DILUPBiCG:  Solving for T, Initial residual = 6.2611167e-17, Final residual = 6.2611167e-17, No Iterations 0
Time = 0.205

DILUPBiCG:  Solving for T, Initial residual = 0.007592442, Final residual = 1.5233416e-17, No Iterations 1
DILUPBiCG:  Solving for T, Initial residual = 5.0142859e-17, Final residual = 5.0142859e-17, No Iterations 0
Time = 0.21

DILUPBiCG:  Solving for T, Initial residual = 0.0074254439, Final residual = 2.6295029e-17, No Iterations 1
DILUPBiCG:  Solving for T, Initial residual = 5.4977518e-17, Final residual = 5.4977518e-17, No Iterations 0
Time = 0.215

DILUPBiCG:  Solving for T, Initial residual = 0.0072638865, Final residual = 1.7006944e-17, No Iterations 1
DILUPBiCG:  Solving for T, Initial residual = 4.8996037e-17, Final residual = 4.8996037e-17, No Iterations 0
Time = 0.22

DILUPBiCG:  Solving for T, Initial residual = 0.0071117666, Final residual = 2.5936752e-18, No Iterations 1
DILUPBiCG:  Solving for T, Initial residual = 4.6308206e-17, Final residual = 4.6308206e-17, No Iterations 0
Time = 0.225

DILUPBiCG:  Solving for T, Initial residual = 0.0069661889, Final residual = 7.8774463e-18, No Iterations 1
DILUPBiCG:  Solving for T, Initial residual = 4.5786878e-17, Final residual = 4.5786878e-17, No Iterations 0
Time = 0.23

DILUPBiCG:  Solving for T, Initial residual = 0.00682576, Final residual = 3.8222404e-18, No Iterations 1
DILUPBiCG:  Solving for T, Initial residual = 4.7057332e-17, Final residual = 4.7057332e-17, No Iterations 0
Time = 0.235

DILUPBiCG:  Solving for T, Initial residual = 0.0066904972, Final residual = 1.3264634e-17, No Iterations 1
DILUPBiCG:  Solving for T, Initial residual = 4.8138872e-17, Final residual = 4.8138872e-17, No Iterations 0
Time = 0.24

DILUPBiCG:  Solving for T, Initial residual = 0.0065629594, Final residual = 7.1111719e-18, No Iterations 1
DILUPBiCG:  Solving for T, Initial residual = 4.5655371e-17, Final residual = 4.5655371e-17, No Iterations 0
Time = 0.245

DILUPBiCG:  Solving for T, Initial residual = 0.0064389409, Final residual = 1.3957569e-18, No Iterations 1
DILUPBiCG:  Solving for T, Initial residual = 4.5493712e-17, Final residual = 4.5493712e-17, No Iterations 0
Time = 0.25

DILUPBiCG:  Solving for T, Initial residual = 0.0063187407, Final residual = 8.4739656e-18, No Iterations 1
DILUPBiCG:  Solving for T, Initial residual = 4.6836223e-17, Final residual = 4.6836223e-17, No Iterations 0
Time = 0.255

DILUPBiCG:  Solving for T, Initial residual = 0.006203883, Final residual = 2.6763741e-18, No Iterations 1
DILUPBiCG:  Solving for T, Initial residual = 4.7799898e-17, Final residual = 4.7799898e-17, No Iterations 0
Time = 0.26

DILUPBiCG:  Solving for T, Initial residual = 0.0060942081, Final residual = 1.8939712e-17, No Iterations 1
DILUPBiCG:  Solving for T, Initial residual = 5.1932849e-17, Final residual = 5.1932849e-17, No Iterations 0
Time = 0.265

DILUPBiCG:  Solving for T, Initial residual = 0.0059876616, Final residual = 1.3673523e-18, No Iterations 1
DILUPBiCG:  Solving for T, Initial residual = 4.8442965e-17, Final residual = 4.8442965e-17, No Iterations 0
Time = 0.27

DILUPBiCG:  Solving for T, Initial residual = 0.0058834906, Final residual = 1.8209739e-17, No Iterations 1
DILUPBiCG:  Solving for T, Initial residual = 5.4189068e-17, Final residual = 5.4189068e-17, No Iterations 0
Time = 0.275

DILUPBiCG:  Solving for T, Initial residual = 0.0057845036, Final residual = 8.8556748e-18, No Iterations 1
DILUPBiCG:  Solving for T, Initial residual = 5.0615383e-17, Final residual = 5.0615383e-17, No Iterations 0
Time = 0.28

DILUPBiCG:  Solving for T, Initial residual = 0.0056886922, Final residual = 2.4507474e-18, No Iterations 1
DILUPBiCG:  Solving for T, Initial residual = 4.8141476e-17, Final residual = 4.8141476e-17, No Iterations 0
Time = 0.285

DILUPBiCG:  Solving for T, Initial residual = 0.00559527, Final residual = 9.8285744e-18, No Iterations 1
DILUPBiCG:  Solving for T, Initial residual = 4.7904261e-17, Final residual = 4.7904261e-17, No Iterations 0
Time = 0.29

DILUPBiCG:  Solving for T, Initial residual = 0.0055045551, Final residual = 1.0962136e-17, No Iterations 1
DILUPBiCG:  Solving for T, Initial residual = 5.06558e-17, Final residual = 5.06558e-17, No Iterations 0
Time = 0.295

DILUPBiCG:  Solving for T, Initial residual = 0.0054181578, Final residual = 1.2717324e-17, No Iterations 1
DILUPBiCG:  Solving for T, Initial residual = 5.0107103e-17, Final residual = 5.0107103e-17, No Iterations 0
Time = 0.3

DILUPBiCG:  Solving for T, Initial residual = 0.0053334501, Final residual = 1.2605978e-17, No Iterations 1
DILUPBiCG:  Solving for T, Initial residual = 5.2316495e-17, Final residual = 5.2316495e-17, No Iterations 0
Time = 0.305

DILUPBiCG:  Solving for T, Initial residual = 0.0052505671, Final residual = 1.1418862e-18, No Iterations 1
DILUPBiCG:  Solving for T, Initial residual = 4.8536332e-17, Final residual = 4.8536332e-17, No Iterations 0
Time = 0.31

DILUPBiCG:  Solving for T, Initial residual = 0.0051706445, Final residual = 8.5410375e-18, No Iterations 1
DILUPBiCG:  Solving for T, Initial residual = 5.0709377e-17, Final residual = 5.0709377e-17, No Iterations 0
Time = 0.315

DILUPBiCG:  Solving for T, Initial residual = 0.0050937478, Final residual = 4.3162049e-18, No Iterations 1
DILUPBiCG:  Solving for T, Initial residual = 5.0347739e-17, Final residual = 5.0347739e-17, No Iterations 0
Time = 0.32

DILUPBiCG:  Solving for T, Initial residual = 0.0050184124, Final residual = 1.0017149e-17, No Iterations 1
DILUPBiCG:  Solving for T, Initial residual = 5.1899954e-17, Final residual = 5.1899954e-17, No Iterations 0
Time = 0.325

DILUPBiCG:  Solving for T, Initial residual = 0.0049442284, Final residual = 8.7348774e-18, No Iterations 1
DILUPBiCG:  Solving for T, Initial residual = 5.2309887e-17, Final residual = 5.2309887e-17, No Iterations 0
Time = 0.33

DILUPBiCG:  Solving for T, Initial residual = 0.0048730631, Final residual = 5.3455333e-19, No Iterations 1
DILUPBiCG:  Solving for T, Initial residual = 5.236612e-17, Final residual = 5.236612e-17, No Iterations 0
Time = 0.335

DILUPBiCG:  Solving for T, Initial residual = 0.0048038475, Final residual = 2.2396331e-17, No Iterations 1
DILUPBiCG:  Solving for T, Initial residual = 6.0411988e-17, Final residual = 6.0411988e-17, No Iterations 0
Time = 0.34

DILUPBiCG:  Solving for T, Initial residual = 0.0047358083, Final residual = 1.7797147e-17, No Iterations 1
DILUPBiCG:  Solving for T, Initial residual = 5.4966473e-17, Final residual = 5.4966473e-17, No Iterations 0
Time = 0.345

DILUPBiCG:  Solving for T, Initial residual = 0.004669164, Final residual = 2.0243748e-18, No Iterations 1
DILUPBiCG:  Solving for T, Initial residual = 4.9764336e-17, Final residual = 4.9764336e-17, No Iterations 0
Time = 0.35

DILUPBiCG:  Solving for T, Initial residual = 0.0046051523, Final residual = 1.4307733e-17, No Iterations 1
DILUPBiCG:  Solving for T, Initial residual = 5.5466953e-17, Final residual = 5.5466953e-17, No Iterations 0
Time = 0.355

DILUPBiCG:  Solving for T, Initial residual = 0.0045422367, Final residual = 8.0978113e-18, No Iterations 1
DILUPBiCG:  Solving for T, Initial residual = 5.1307653e-17, Final residual = 5.1307653e-17, No Iterations 0
Time = 0.36

DILUPBiCG:  Solving for T, Initial residual = 0.0044802695, Final residual = 4.9598035e-19, No Iterations 1
DILUPBiCG:  Solving for T, Initial residual = 5.3508659e-17, Final residual = 5.3508659e-17, No Iterations 0
Time = 0.365

DILUPBiCG:  Solving for T, Initial residual = 0.004419906, Final residual = 1.0697707e-18, No Iterations 1
DILUPBiCG:  Solving for T, Initial residual = 5.2884303e-17, Final residual = 5.2884303e-17, No Iterations 0
Time = 0.37

DILUPBiCG:  Solving for T, Initial residual = 0.004361639, Final residual = 8.6323443e-18, No Iterations 1
DILUPBiCG:  Solving for T, Initial residual = 5.3831982e-17, Final residual = 5.3831982e-17, No Iterations 0
Time = 0.375

DILUPBiCG:  Solving for T, Initial residual = 0.0043041515, Final residual = 1.5580975e-18, No Iterations 1
DILUPBiCG:  Solving for T, Initial residual = 5.4122632e-17, Final residual = 5.4122632e-17, No Iterations 0
Time = 0.38

DILUPBiCG:  Solving for T, Initial residual = 0.0042472631, Final residual = 3.7111508e-18, No Iterations 1
DILUPBiCG:  Solving for T, Initial residual = 5.2545956e-17, Final residual = 5.2545956e-17, No Iterations 0
Time = 0.385

DILUPBiCG:  Solving for T, Initial residual = 0.0041921383, Final residual = 1.8847802e-18, No Iterations 1
DILUPBiCG:  Solving for T, Initial residual = 5.5892361e-17, Final residual = 5.5892361e-17, No Iterations 0
Time = 0.39

DILUPBiCG:  Solving for T, Initial residual = 0.004138442, Final residual = 8.2932423e-18, No Iterations 1
DILUPBiCG:  Solving for T, Initial residual = 5.7169596e-17, Final residual = 5.7169596e-17, No Iterations 0
Time = 0.395

DILUPBiCG:  Solving for T, Initial residual = 0.0040854404, Final residual = 1.2661735e-17, No Iterations 1
DILUPBiCG:  Solving for T, Initial residual = 5.764917e-17, Final residual = 5.764917e-17, No Iterations 0
Time = 0.4

DILUPBiCG:  Solving for T, Initial residual = 0.0040330322, Final residual = 8.8889177e-18, No Iterations 1
DILUPBiCG:  Solving for T, Initial residual = 5.6689294e-17, Final residual = 5.6689294e-17, No Iterations 0
Time = 0.405

DILUPBiCG:  Solving for T, Initial residual = 0.0039822695, Final residual = 1.7136336e-18, No Iterations 1
DILUPBiCG:  Solving for T, Initial residual = 5.4200993e-17, Final residual = 5.4200993e-17, No Iterations 0
Time = 0.41

DILUPBiCG:  Solving for T, Initial residual = 0.0039324008, Final residual = 1.8138761e-18, No Iterations 1
DILUPBiCG:  Solving for T, Initial residual = 5.3364567e-17, Final residual = 5.3364567e-17, No Iterations 0
Time = 0.415

DILUPBiCG:  Solving for T, Initial residual = 0.003883075, Final residual = 4.2947243e-18, No Iterations 1
DILUPBiCG:  Solving for T, Initial residual = 5.5638474e-17, Final residual = 5.5638474e-17, No Iterations 0
Time = 0.42

DILUPBiCG:  Solving for T, Initial residual = 0.0038345394, Final residual = 3.4064256e-18, No Iterations 1
DILUPBiCG:  Solving for T, Initial residual = 5.8070266e-17, Final residual = 5.8070266e-17, No Iterations 0
Time = 0.425

DILUPBiCG:  Solving for T, Initial residual = 0.003787459, Final residual = 4.1809226e-18, No Iterations 1
DILUPBiCG:  Solving for T, Initial residual = 5.6749705e-17, Final residual = 5.6749705e-17, No Iterations 0
Time = 0.43

DILUPBiCG:  Solving for T, Initial residual = 0.003740825, Final residual = 8.485986e-19, No Iterations 1
DILUPBiCG:  Solving for T, Initial residual = 5.5150145e-17, Final residual = 5.5150145e-17, No Iterations 0
Time = 0.435

DILUPBiCG:  Solving for T, Initial residual = 0.003694611, Final residual = 2.531585e-18, No Iterations 1
DILUPBiCG:  Solving for T, Initial residual = 5.5552657e-17, Final residual = 5.5552657e-17, No Iterations 0
Time = 0.44

DILUPBiCG:  Solving for T, Initial residual = 0.0036493589, Final residual = 8.4919738e-19, No Iterations 1
DILUPBiCG:  Solving for T, Initial residual = 5.5805276e-17, Final residual = 5.5805276e-17, No Iterations 0
Time = 0.445

DILUPBiCG:  Solving for T, Initial residual = 0.0036052142, Final residual = 9.6255559e-18, No Iterations 1
DILUPBiCG:  Solving for T, Initial residual = 5.8826539e-17, Final residual = 5.8826539e-17, No Iterations 0
Time = 0.45

DILUPBiCG:  Solving for T, Initial residual = 0.0035614597, Final residual = 4.4124918e-18, No Iterations 1
DILUPBiCG:  Solving for T, Initial residual = 5.6309848e-17, Final residual = 5.6309848e-17, No Iterations 0
Time = 0.455

DILUPBiCG:  Solving for T, Initial residual = 0.0035178906, Final residual = 6.2326517e-18, No Iterations 1
DILUPBiCG:  Solving for T, Initial residual = 5.6410284e-17, Final residual = 5.6410284e-17, No Iterations 0
Time = 0.46

DILUPBiCG:  Solving for T, Initial residual = 0.0034753778, Final residual = 5.052303e-18, No Iterations 1
DILUPBiCG:  Solving for T, Initial residual = 5.8687589e-17, Final residual = 5.8687589e-17, No Iterations 0
Time = 0.465

DILUPBiCG:  Solving for T, Initial residual = 0.0034336251, Final residual = 3.9660714e-19, No Iterations 1
DILUPBiCG:  Solving for T, Initial residual = 5.873995e-17, Final residual = 5.873995e-17, No Iterations 0
Time = 0.47

DILUPBiCG:  Solving for T, Initial residual = 0.0033921854, Final residual = 8.2135434e-19, No Iterations 1
DILUPBiCG:  Solving for T, Initial residual = 6.00924e-17, Final residual = 6.00924e-17, No Iterations 0
Time = 0.475

DILUPBiCG:  Solving for T, Initial residual = 0.0033510725, Final residual = 4.8641525e-18, No Iterations 1
DILUPBiCG:  Solving for T, Initial residual = 5.9421513e-17, Final residual = 5.9421513e-17, No Iterations 0
Time = 0.48

DILUPBiCG:  Solving for T, Initial residual = 0.0033108882, Final residual = 1.4746524e-18, No Iterations 1
DILUPBiCG:  Solving for T, Initial residual = 5.9766427e-17, Final residual = 5.9766427e-17, No Iterations 0
Time = 0.485

DILUPBiCG:  Solving for T, Initial residual = 0.0032711592, Final residual = 1.2754172e-17, No Iterations 1
DILUPBiCG:  Solving for T, Initial residual = 6.3168618e-17, Final residual = 6.3168618e-17, No Iterations 0
Time = 0.49

DILUPBiCG:  Solving for T, Initial residual = 0.0032316668, Final residual = 8.2588897e-18, No Iterations 1
DILUPBiCG:  Solving for T, Initial residual = 6.0979144e-17, Final residual = 6.0979144e-17, No Iterations 0
Time = 0.495

DILUPBiCG:  Solving for T, Initial residual = 0.0031926266, Final residual = 4.2536339e-18, No Iterations 1
DILUPBiCG:  Solving for T, Initial residual = 5.9054008e-17, Final residual = 5.9054008e-17, No Iterations 0
Time = 0.5

DILUPBiCG:  Solving for T, Initial residual = 0.0031543988, Final residual = 7.3373325e-18, No Iterations 1
DILUPBiCG:  Solving for T, Initial residual = 6.1008664e-17, Final residual = 6.1008664e-17, No Iterations 0
Time = 0.505

DILUPBiCG:  Solving for T, Initial residual = 0.0031163663, Final residual = 7.0687102e-19, No Iterations 1
DILUPBiCG:  Solving for T, Initial residual = 5.9122387e-17, Final residual = 5.9122387e-17, No Iterations 0
Time = 0.51

DILUPBiCG:  Solving for T, Initial residual = 0.0030785094, Final residual = 1.3276046e-18, No Iterations 1
DILUPBiCG:  Solving for T, Initial residual = 5.8284246e-17, Final residual = 5.8284246e-17, No Iterations 0
Time = 0.515

DILUPBiCG:  Solving for T, Initial residual = 0.0030411998, Final residual = 7.1020354e-19, No Iterations 1
DILUPBiCG:  Solving for T, Initial residual = 5.9208856e-17, Final residual = 5.9208856e-17, No Iterations 0
Time = 0.52

DILUPBiCG:  Solving for T, Initial residual = 0.0030045001, Final residual = 6.9704054e-19, No Iterations 1
DILUPBiCG:  Solving for T, Initial residual = 6.0986641e-17, Final residual = 6.0986641e-17, No Iterations 0
Time = 0.525

DILUPBiCG:  Solving for T, Initial residual = 0.0029679842, Final residual = 1.2693917e-18, No Iterations 1
DILUPBiCG:  Solving for T, Initial residual = 6.0370163e-17, Final residual = 6.0370163e-17, No Iterations 0
Time = 0.53

DILUPBiCG:  Solving for T, Initial residual = 0.0029315779, Final residual = 2.3057861e-18, No Iterations 1
DILUPBiCG:  Solving for T, Initial residual = 6.0889896e-17, Final residual = 6.0889896e-17, No Iterations 0
Time = 0.535

DILUPBiCG:  Solving for T, Initial residual = 0.0028957635, Final residual = 1.2693645e-18, No Iterations 1
DILUPBiCG:  Solving for T, Initial residual = 6.2211378e-17, Final residual = 6.2211378e-17, No Iterations 0
Time = 0.54

DILUPBiCG:  Solving for T, Initial residual = 0.002860344, Final residual = 6.3966436e-19, No Iterations 1
DILUPBiCG:  Solving for T, Initial residual = 6.1366422e-17, Final residual = 6.1366422e-17, No Iterations 0
Time = 0.545

DILUPBiCG:  Solving for T, Initial residual = 0.0028250644, Final residual = 4.3923527e-18, No Iterations 1
DILUPBiCG:  Solving for T, Initial residual = 6.2434092e-17, Final residual = 6.2434092e-17, No Iterations 0
Time = 0.55

DILUPBiCG:  Solving for T, Initial residual = 0.0027899658, Final residual = 5.5489467e-18, No Iterations 1
DILUPBiCG:  Solving for T, Initial residual = 6.1250474e-17, Final residual = 6.1250474e-17, No Iterations 0
Time = 0.555

DILUPBiCG:  Solving for T, Initial residual = 0.0027553937, Final residual = 6.2493047e-19, No Iterations 1
DILUPBiCG:  Solving for T, Initial residual = 6.1756552e-17, Final residual = 6.1756552e-17, No Iterations 0
Time = 0.56

DILUPBiCG:  Solving for T, Initial residual = 0.0027210426, Final residual = 6.4608498e-19, No Iterations 1
DILUPBiCG:  Solving for T, Initial residual = 6.4756118e-17, Final residual = 6.4756118e-17, No Iterations 0
Time = 0.565

DILUPBiCG:  Solving for T, Initial residual = 0.0026867828, Final residual = 6.0738118e-19, No Iterations 1
DILUPBiCG:  Solving for T, Initial residual = 6.1483611e-17, Final residual = 6.1483611e-17, No Iterations 0
Time = 0.57

DILUPBiCG:  Solving for T, Initial residual = 0.0026527695, Final residual = 1.5007185e-18, No Iterations 1
DILUPBiCG:  Solving for T, Initial residual = 6.3912911e-17, Final residual = 6.3912911e-17, No Iterations 0
Time = 0.575

DILUPBiCG:  Solving for T, Initial residual = 0.0026191947, Final residual = 5.01441e-19, No Iterations 1
DILUPBiCG:  Solving for T, Initial residual = 6.4217877e-17, Final residual = 6.4217877e-17, No Iterations 0
Time = 0.58

DILUPBiCG:  Solving for T, Initial residual = 0.0025857265, Final residual = 4.820969e-19, No Iterations 1
DILUPBiCG:  Solving for T, Initial residual = 6.317279e-17, Final residual = 6.317279e-17, No Iterations 0
Time = 0.585

DILUPBiCG:  Solving for T, Initial residual = 0.0025523001, Final residual = 2.2565884e-18, No Iterations 1
DILUPBiCG:  Solving for T, Initial residual = 6.2070003e-17, Final residual = 6.2070003e-17, No Iterations 0
Time = 0.59

DILUPBiCG:  Solving for T, Initial residual = 0.0025191838, Final residual = 2.9223983e-19, No Iterations 1
DILUPBiCG:  Solving for T, Initial residual = 6.2808423e-17, Final residual = 6.2808423e-17, No Iterations 0
Time = 0.595

DILUPBiCG:  Solving for T, Initial residual = 0.002486342, Final residual = 3.8589704e-18, No Iterations 1
DILUPBiCG:  Solving for T, Initial residual = 6.2645848e-17, Final residual = 6.2645848e-17, No Iterations 0
Time = 0.6

DILUPBiCG:  Solving for T, Initial residual = 0.002453576, Final residual = 2.1701343e-18, No Iterations 1
DILUPBiCG:  Solving for T, Initial residual = 6.567291e-17, Final residual = 6.567291e-17, No Iterations 0
Time = 0.605

DILUPBiCG:  Solving for T, Initial residual = 0.0024208578, Final residual = 4.6302231e-19, No Iterations 1
DILUPBiCG:  Solving for T, Initial residual = 6.339077e-17, Final residual = 6.339077e-17, No Iterations 0
Time = 0.61

DILUPBiCG:  Solving for T, Initial residual = 0.0023884332, Final residual = 5.2128638e-19, No Iterations 1
DILUPBiCG:  Solving for T, Initial residual = 6.3796987e-17, Final residual = 6.3796987e-17, No Iterations 0
Time = 0.615

DILUPBiCG:  Solving for T, Initial residual = 0.0023561579, Final residual = 2.7440479e-19, No Iterations 1
DILUPBiCG:  Solving for T, Initial residual = 6.323217e-17, Final residual = 6.323217e-17, No Iterations 0
Time = 0.62

DILUPBiCG:  Solving for T, Initial residual = 0.0023239102, Final residual = 5.3039137e-19, No Iterations 1
DILUPBiCG:  Solving for T, Initial residual = 6.5831073e-17, Final residual = 6.5831073e-17, No Iterations 0
Time = 0.625

DILUPBiCG:  Solving for T, Initial residual = 0.0022917452, Final residual = 4.0629995e-18, No Iterations 1
DILUPBiCG:  Solving for T, Initial residual = 6.5665989e-17, Final residual = 6.5665989e-17, No Iterations 0
Time = 0.63

DILUPBiCG:  Solving for T, Initial residual = 0.0022598324, Final residual = 1.0071915e-18, No Iterations 1
DILUPBiCG:  Solving for T, Initial residual = 6.5412612e-17, Final residual = 6.5412612e-17, No Iterations 0
Time = 0.635

DILUPBiCG:  Solving for T, Initial residual = 0.0022279611, Final residual = 5.000227e-19, No Iterations 1
DILUPBiCG:  Solving for T, Initial residual = 6.3913815e-17, Final residual = 6.3913815e-17, No Iterations 0
Time = 0.64

DILUPBiCG:  Solving for T, Initial residual = 0.0021960779, Final residual = 4.7425491e-19, No Iterations 1
DILUPBiCG:  Solving for T, Initial residual = 6.2098008e-17, Final residual = 6.2098008e-17, No Iterations 0
Time = 0.645

DILUPBiCG:  Solving for T, Initial residual = 0.0021643045, Final residual = 9.6133726e-19, No Iterations 1
DILUPBiCG:  Solving for T, Initial residual = 6.3304478e-17, Final residual = 6.3304478e-17, No Iterations 0
Time = 0.65

DILUPBiCG:  Solving for T, Initial residual = 0.0021326941, Final residual = 1.1921554e-18, No Iterations 1
DILUPBiCG:  Solving for T, Initial residual = 6.60148e-17, Final residual = 6.60148e-17, No Iterations 0
Time = 0.655

DILUPBiCG:  Solving for T, Initial residual = 0.0021010869, Final residual = 4.7909222e-19, No Iterations 1
DILUPBiCG:  Solving for T, Initial residual = 6.5142743e-17, Final residual = 6.5142743e-17, No Iterations 0
Time = 0.66

DILUPBiCG:  Solving for T, Initial residual = 0.0020694462, Final residual = 2.0757626e-18, No Iterations 1
DILUPBiCG:  Solving for T, Initial residual = 6.7244981e-17, Final residual = 6.7244981e-17, No Iterations 0
Time = 0.665

DILUPBiCG:  Solving for T, Initial residual = 0.0020379094, Final residual = 3.1478395e-18, No Iterations 1
DILUPBiCG:  Solving for T, Initial residual = 6.5733708e-17, Final residual = 6.5733708e-17, No Iterations 0
Time = 0.67

DILUPBiCG:  Solving for T, Initial residual = 0.0020064475, Final residual = 1.1368222e-18, No Iterations 1
DILUPBiCG:  Solving for T, Initial residual = 6.5828048e-17, Final residual = 6.5828048e-17, No Iterations 0
Time = 0.675

DILUPBiCG:  Solving for T, Initial residual = 0.0019749567, Final residual = 2.3437558e-19, No Iterations 1
DILUPBiCG:  Solving for T, Initial residual = 6.9705802e-17, Final residual = 6.9705802e-17, No Iterations 0
Time = 0.68

DILUPBiCG:  Solving for T, Initial residual = 0.0019434412, Final residual = 8.338391e-19, No Iterations 1
DILUPBiCG:  Solving for T, Initial residual = 6.6362936e-17, Final residual = 6.6362936e-17, No Iterations 0
Time = 0.685

DILUPBiCG:  Solving for T, Initial residual = 0.0019119993, Final residual = 2.0414268e-19, No Iterations 1
DILUPBiCG:  Solving for T, Initial residual = 6.2969346e-17, Final residual = 6.2969346e-17, No Iterations 0
Time = 0.69

DILUPBiCG:  Solving for T, Initial residual = 0.0018805645, Final residual = 8.4288672e-19, No Iterations 1
DILUPBiCG:  Solving for T, Initial residual = 6.7472712e-17, Final residual = 6.7472712e-17, No Iterations 0
Time = 0.695

DILUPBiCG:  Solving for T, Initial residual = 0.0018490891, Final residual = 4.0744277e-19, No Iterations 1
DILUPBiCG:  Solving for T, Initial residual = 6.8305409e-17, Final residual = 6.8305409e-17, No Iterations 0
Time = 0.7

DILUPBiCG:  Solving for T, Initial residual = 0.0018176136, Final residual = 8.0377866e-19, No Iterations 1
DILUPBiCG:  Solving for T, Initial residual = 6.6565213e-17, Final residual = 6.6565213e-17, No Iterations 0
Time = 0.705

DILUPBiCG:  Solving for T, Initial residual = 0.0017861848, Final residual = 2.396593e-18, No Iterations 1
DILUPBiCG:  Solving for T, Initial residual = 6.5298418e-17, Final residual = 6.5298418e-17, No Iterations 0
Time = 0.71

DILUPBiCG:  Solving for T, Initial residual = 0.0017547276, Final residual = 1.1814935e-18, No Iterations 1
DILUPBiCG:  Solving for T, Initial residual = 6.6565976e-17, Final residual = 6.6565976e-17, No Iterations 0
Time = 0.715

DILUPBiCG:  Solving for T, Initial residual = 0.0017232173, Final residual = 2.0972089e-18, No Iterations 1
DILUPBiCG:  Solving for T, Initial residual = 6.6647943e-17, Final residual = 6.6647943e-17, No Iterations 0
Time = 0.72

DILUPBiCG:  Solving for T, Initial residual = 0.0016917243, Final residual = 3.5563172e-19, No Iterations 1
DILUPBiCG:  Solving for T, Initial residual = 6.8047694e-17, Final residual = 6.8047694e-17, No Iterations 0
Time = 0.725

DILUPBiCG:  Solving for T, Initial residual = 0.0016602429, Final residual = 1.8558767e-18, No Iterations 1
DILUPBiCG:  Solving for T, Initial residual = 6.6592973e-17, Final residual = 6.6592973e-17, No Iterations 0
Time = 0.73

DILUPBiCG:  Solving for T, Initial residual = 0.0016287147, Final residual = 7.4538231e-19, No Iterations 1
DILUPBiCG:  Solving for T, Initial residual = 6.5344838e-17, Final residual = 6.5344838e-17, No Iterations 0
Time = 0.735

DILUPBiCG:  Solving for T, Initial residual = 0.0015971519, Final residual = 2.4667559e-18, No Iterations 1
DILUPBiCG:  Solving for T, Initial residual = 6.4364874e-17, Final residual = 6.4364874e-17, No Iterations 0
Time = 0.74

DILUPBiCG:  Solving for T, Initial residual = 0.0015656172, Final residual = 5.5252646e-19, No Iterations 1
DILUPBiCG:  Solving for T, Initial residual = 6.7687973e-17, Final residual = 6.7687973e-17, No Iterations 0
Time = 0.745

DILUPBiCG:  Solving for T, Initial residual = 0.001534075, Final residual = 6.5980693e-19, No Iterations 1
DILUPBiCG:  Solving for T, Initial residual = 6.6970262e-17, Final residual = 6.6970262e-17, No Iterations 0
Time = 0.75

DILUPBiCG:  Solving for T, Initial residual = 0.0015024978, Final residual = 5.0350484e-19, No Iterations 1
DILUPBiCG:  Solving for T, Initial residual = 6.6319867e-17, Final residual = 6.6319867e-17, No Iterations 0
Time = 0.755

DILUPBiCG:  Solving for T, Initial residual = 0.0014709113, Final residual = 9.9775424e-19, No Iterations 1
DILUPBiCG:  Solving for T, Initial residual = 6.3402264e-17, Final residual = 6.3402264e-17, No Iterations 0
Time = 0.76

DILUPBiCG:  Solving for T, Initial residual = 0.0014393643, Final residual = 5.10291e-19, No Iterations 1
DILUPBiCG:  Solving for T, Initial residual = 6.6450807e-17, Final residual = 6.6450807e-17, No Iterations 0
Time = 0.765

DILUPBiCG:  Solving for T, Initial residual = 0.0014078245, Final residual = 3.0494645e-19, No Iterations 1
DILUPBiCG:  Solving for T, Initial residual = 6.9812488e-17, Final residual = 6.9812488e-17, No Iterations 0
Time = 0.77

DILUPBiCG:  Solving for T, Initial residual = 0.0013762781, Final residual = 5.8996513e-19, No Iterations 1
DILUPBiCG:  Solving for T, Initial residual = 6.7140777e-17, Final residual = 6.7140777e-17, No Iterations 0
Time = 0.775

DILUPBiCG:  Solving for T, Initial residual = 0.001344764, Final residual = 2.8348618e-19, No Iterations 1
DILUPBiCG:  Solving for T, Initial residual = 6.7179079e-17, Final residual = 6.7179079e-17, No Iterations 0
Time = 0.78

DILUPBiCG:  Solving for T, Initial residual = 0.0013133138, Final residual = 1.4466842e-18, No Iterations 1
DILUPBiCG:  Solving for T, Initial residual = 6.6244764e-17, Final residual = 6.6244764e-17, No Iterations 0
Time = 0.785

DILUPBiCG:  Solving for T, Initial residual = 0.0012819068, Final residual = 5.5936746e-19, No Iterations 1
DILUPBiCG:  Solving for T, Initial residual = 6.5923162e-17, Final residual = 6.5923162e-17, No Iterations 0
Time = 0.79

DILUPBiCG:  Solving for T, Initial residual = 0.0012505444, Final residual = 1.6882833e-18, No Iterations 1
DILUPBiCG:  Solving for T, Initial residual = 6.602669e-17, Final residual = 6.602669e-17, No Iterations 0
Time = 0.795

DILUPBiCG:  Solving for T, Initial residual = 0.001219266, Final residual = 6.7507316e-19, No Iterations 1
DILUPBiCG:  Solving for T, Initial residual = 6.569761e-17, Final residual = 6.569761e-17, No Iterations 0
Time = 0.8

DILUPBiCG:  Solving for T, Initial residual = 0.0011880948, Final residual = 5.0618424e-19, No Iterations 1
DILUPBiCG:  Solving for T, Initial residual = 6.6371064e-17, Final residual = 6.6371064e-17, No Iterations 0
Time = 0.805

DILUPBiCG:  Solving for T, Initial residual = 0.001157023, Final residual = 4.8438945e-19, No Iterations 1
DILUPBiCG:  Solving for T, Initial residual = 6.5940148e-17, Final residual = 6.5940148e-17, No Iterations 0
Time = 0.81

DILUPBiCG:  Solving for T, Initial residual = 0.001126064, Final residual = 6.3485697e-19, No Iterations 1
DILUPBiCG:  Solving for T, Initial residual = 6.6018123e-17, Final residual = 6.6018123e-17, No Iterations 0
Time = 0.815

DILUPBiCG:  Solving for T, Initial residual = 0.0010952531, Final residual = 2.5950106e-19, No Iterations 1
DILUPBiCG:  Solving for T, Initial residual = 6.5669728e-17, Final residual = 6.5669728e-17, No Iterations 0
Time = 0.82

DILUPBiCG:  Solving for T, Initial residual = 0.0010646105, Final residual = 1.1192449e-19, No Iterations 1
DILUPBiCG:  Solving for T, Initial residual = 6.7619158e-17, Final residual = 6.7619158e-17, No Iterations 0
Time = 0.825

DILUPBiCG:  Solving for T, Initial residual = 0.0010341391, Final residual = 1.3805429e-18, No Iterations 1
DILUPBiCG:  Solving for T, Initial residual = 6.8172774e-17, Final residual = 6.8172774e-17, No Iterations 0
Time = 0.83

DILUPBiCG:  Solving for T, Initial residual = 0.0010038606, Final residual = 4.3122577e-19, No Iterations 1
DILUPBiCG:  Solving for T, Initial residual = 6.7106898e-17, Final residual = 6.7106898e-17, No Iterations 0
Time = 0.835

DILUPBiCG:  Solving for T, Initial residual = 0.0009738063, Final residual = 1.7146793e-19, No Iterations 1
DILUPBiCG:  Solving for T, Initial residual = 6.6467973e-17, Final residual = 6.6467973e-17, No Iterations 0
Time = 0.84

DILUPBiCG:  Solving for T, Initial residual = 0.00094399655, Final residual = 4.2054938e-19, No Iterations 1
DILUPBiCG:  Solving for T, Initial residual = 6.7270119e-17, Final residual = 6.7270119e-17, No Iterations 0
Time = 0.845

DILUPBiCG:  Solving for T, Initial residual = 0.000914442, Final residual = 2.1968213e-19, No Iterations 1
DILUPBiCG:  Solving for T, Initial residual = 6.6937155e-17, Final residual = 6.6937155e-17, No Iterations 0
Time = 0.85

DILUPBiCG:  Solving for T, Initial residual = 0.00088516326, Final residual = 1.9007539e-19, No Iterations 1
DILUPBiCG:  Solving for T, Initial residual = 6.4292016e-17, Final residual = 6.4292016e-17, No Iterations 0
Time = 0.855

DILUPBiCG:  Solving for T, Initial residual = 0.00085619138, Final residual = 2.8818903e-19, No Iterations 1
DILUPBiCG:  Solving for T, Initial residual = 6.4564479e-17, Final residual = 6.4564479e-17, No Iterations 0
Time = 0.86

DILUPBiCG:  Solving for T, Initial residual = 0.00082754876, Final residual = 9.3375828e-20, No Iterations 1
DILUPBiCG:  Solving for T, Initial residual = 6.508792e-17, Final residual = 6.508792e-17, No Iterations 0
Time = 0.865

DILUPBiCG:  Solving for T, Initial residual = 0.00079924786, Final residual = 1.7329402e-19, No Iterations 1
DILUPBiCG:  Solving for T, Initial residual = 6.5416839e-17, Final residual = 6.5416839e-17, No Iterations 0
Time = 0.87

DILUPBiCG:  Solving for T, Initial residual = 0.00077130867, Final residual = 2.6019728e-19, No Iterations 1
DILUPBiCG:  Solving for T, Initial residual = 6.7857087e-17, Final residual = 6.7857087e-17, No Iterations 0
Time = 0.875

DILUPBiCG:  Solving for T, Initial residual = 0.0007437608, Final residual = 1.9473933e-19, No Iterations 1
DILUPBiCG:  Solving for T, Initial residual = 6.4442959e-17, Final residual = 6.4442959e-17, No Iterations 0
Time = 0.88

DILUPBiCG:  Solving for T, Initial residual = 0.00071662445, Final residual = 1.6116066e-19, No Iterations 1
DILUPBiCG:  Solving for T, Initial residual = 6.5517262e-17, Final residual = 6.5517262e-17, No Iterations 0
Time = 0.885

DILUPBiCG:  Solving for T, Initial residual = 0.00068991304, Final residual = 1.5399283e-19, No Iterations 1
DILUPBiCG:  Solving for T, Initial residual = 6.5724628e-17, Final residual = 6.5724628e-17, No Iterations 0
Time = 0.89

DILUPBiCG:  Solving for T, Initial residual = 0.00066364427, Final residual = 1.6434232e-19, No Iterations 1
DILUPBiCG:  Solving for T, Initial residual = 6.5231757e-17, Final residual = 6.5231757e-17, No Iterations 0
Time = 0.895

DILUPBiCG:  Solving for T, Initial residual = 0.00063784444, Final residual = 1.6386166e-19, No Iterations 1
DILUPBiCG:  Solving for T, Initial residual = 6.623144e-17, Final residual = 6.623144e-17, No Iterations 0
Time = 0.9

DILUPBiCG:  Solving for T, Initial residual = 0.00061253227, Final residual = 4.2068985e-19, No Iterations 1
DILUPBiCG:  Solving for T, Initial residual = 6.756301e-17, Final residual = 6.756301e-17, No Iterations 0
Time = 0.905

DILUPBiCG:  Solving for T, Initial residual = 0.00058771766, Final residual = 1.4681381e-19, No Iterations 1
DILUPBiCG:  Solving for T, Initial residual = 6.9882399e-17, Final residual = 6.9882399e-17, No Iterations 0
Time = 0.91

DILUPBiCG:  Solving for T, Initial residual = 0.00056341519, Final residual = 6.1730794e-20, No Iterations 1
DILUPBiCG:  Solving for T, Initial residual = 6.8007224e-17, Final residual = 6.8007224e-17, No Iterations 0
Time = 0.915

DILUPBiCG:  Solving for T, Initial residual = 0.00053964554, Final residual = 6.1990013e-20, No Iterations 1
DILUPBiCG:  Solving for T, Initial residual = 6.5990447e-17, Final residual = 6.5990447e-17, No Iterations 0
Time = 0.92

DILUPBiCG:  Solving for T, Initial residual = 0.00051642342, Final residual = 1.2263751e-19, No Iterations 1
DILUPBiCG:  Solving for T, Initial residual = 6.7159054e-17, Final residual = 6.7159054e-17, No Iterations 0
Time = 0.925

DILUPBiCG:  Solving for T, Initial residual = 0.00049375735, Final residual = 1.2094664e-19, No Iterations 1
DILUPBiCG:  Solving for T, Initial residual = 6.4544108e-17, Final residual = 6.4544108e-17, No Iterations 0
Time = 0.93

DILUPBiCG:  Solving for T, Initial residual = 0.00047165822, Final residual = 2.0921243e-19, No Iterations 1
DILUPBiCG:  Solving for T, Initial residual = 6.3815804e-17, Final residual = 6.3815804e-17, No Iterations 0
Time = 0.935

DILUPBiCG:  Solving for T, Initial residual = 0.0004501381, Final residual = 2.1268612e-19, No Iterations 1
DILUPBiCG:  Solving for T, Initial residual = 6.2932923e-17, Final residual = 6.2932923e-17, No Iterations 0
Time = 0.94

DILUPBiCG:  Solving for T, Initial residual = 0.00042920555, Final residual = 4.5242283e-20, No Iterations 1
DILUPBiCG:  Solving for T, Initial residual = 6.7156903e-17, Final residual = 6.7156903e-17, No Iterations 0
Time = 0.945

DILUPBiCG:  Solving for T, Initial residual = 0.00040886627, Final residual = 4.5713487e-20, No Iterations 1
DILUPBiCG:  Solving for T, Initial residual = 6.5143712e-17, Final residual = 6.5143712e-17, No Iterations 0
Time = 0.95

DILUPBiCG:  Solving for T, Initial residual = 0.00038912753, Final residual = 2.6031485e-19, No Iterations 1
DILUPBiCG:  Solving for T, Initial residual = 6.3192376e-17, Final residual = 6.3192376e-17, No Iterations 0
Time = 0.955

DILUPBiCG:  Solving for T, Initial residual = 0.00036999489, Final residual = 3.994138e-20, No Iterations 1
DILUPBiCG:  Solving for T, Initial residual = 6.655453e-17, Final residual = 6.655453e-17, No Iterations 0
Time = 0.96

DILUPBiCG:  Solving for T, Initial residual = 0.00035146862, Final residual = 7.5691818e-20, No Iterations 1
DILUPBiCG:  Solving for T, Initial residual = 6.4686095e-17, Final residual = 6.4686095e-17, No Iterations 0
Time = 0.965

DILUPBiCG:  Solving for T, Initial residual = 0.00033355037, Final residual = 1.5099497e-19, No Iterations 1
DILUPBiCG:  Solving for T, Initial residual = 6.2549558e-17, Final residual = 6.2549558e-17, No Iterations 0
Time = 0.97

DILUPBiCG:  Solving for T, Initial residual = 0.00031624283, Final residual = 6.5950932e-20, No Iterations 1
DILUPBiCG:  Solving for T, Initial residual = 6.4711711e-17, Final residual = 6.4711711e-17, No Iterations 0
Time = 0.975

DILUPBiCG:  Solving for T, Initial residual = 0.00029954636, Final residual = 3.7592324e-20, No Iterations 1
DILUPBiCG:  Solving for T, Initial residual = 6.425127e-17, Final residual = 6.425127e-17, No Iterations 0
Time = 0.98

DILUPBiCG:  Solving for T, Initial residual = 0.00028345534, Final residual = 9.5271357e-20, No Iterations 1
DILUPBiCG:  Solving for T, Initial residual = 6.6291837e-17, Final residual = 6.6291837e-17, No Iterations 0
Time = 0.985

DILUPBiCG:  Solving for T, Initial residual = 0.00026796588, Final residual = 1.1146943e-19, No Iterations 1
DILUPBiCG:  Solving for T, Initial residual = 6.592009e-17, Final residual = 6.592009e-17, No Iterations 0
Time = 0.99

DILUPBiCG:  Solving for T, Initial residual = 0.00025307576, Final residual = 2.7712442e-20, No Iterations 1
DILUPBiCG:  Solving for T, Initial residual = 6.4713301e-17, Final residual = 6.4713301e-17, No Iterations 0
Time = 0.995

DILUPBiCG:  Solving for T, Initial residual = 0.00023877885, Final residual = 1.5471484e-19, No Iterations 1
DILUPBiCG:  Solving for T, Initial residual = 6.6153756e-17, Final residual = 6.6153756e-17, No Iterations 0
Time = 1

DILUPBiCG:  Solving for T, Initial residual = 0.00022506649, Final residual = 2.5728187e-20, No Iterations 1
DILUPBiCG:  Solving for T, Initial residual = 6.4046286e-17, Final residual = 6.4046286e-17, No Iterations 0
Time = 1.005

DILUPBiCG:  Solving for T, Initial residual = 0.00021193116, Final residual = 4.373599e-20, No Iterations 1
DILUPBiCG:  Solving for T, Initial residual = 6.4664173e-17, Final residual = 6.4664173e-17, No Iterations 0
Time = 1.01

DILUPBiCG:  Solving for T, Initial residual = 0.00019936498, Final residual = 4.3677234e-20, No Iterations 1
DILUPBiCG:  Solving for T, Initial residual = 6.3228745e-17, Final residual = 6.3228745e-17, No Iterations 0
Time = 1.015

DILUPBiCG:  Solving for T, Initial residual = 0.00018735662, Final residual = 4.0339376e-20, No Iterations 1
DILUPBiCG:  Solving for T, Initial residual = 6.2534666e-17, Final residual = 6.2534666e-17, No Iterations 0
Time = 1.02

DILUPBiCG:  Solving for T, Initial residual = 0.00017589456, Final residual = 3.039838e-20, No Iterations 1
DILUPBiCG:  Solving for T, Initial residual = 6.1304994e-17, Final residual = 6.1304994e-17, No Iterations 0
Time = 1.025

DILUPBiCG:  Solving for T, Initial residual = 0.00016496812, Final residual = 3.639808e-20, No Iterations 1
DILUPBiCG:  Solving for T, Initial residual = 6.2340714e-17, Final residual = 6.2340714e-17, No Iterations 0
Time = 1.03

DILUPBiCG:  Solving for T, Initial residual = 0.00015456539, Final residual = 5.2198941e-20, No Iterations 1
DILUPBiCG:  Solving for T, Initial residual = 6.3502836e-17, Final residual = 6.3502836e-17, No Iterations 0
Time = 1.035

DILUPBiCG:  Solving for T, Initial residual = 0.00014467272, Final residual = 3.5127187e-20, No Iterations 1
DILUPBiCG:  Solving for T, Initial residual = 6.2921285e-17, Final residual = 6.2921285e-17, No Iterations 0
Time = 1.04

DILUPBiCG:  Solving for T, Initial residual = 0.0001352762, Final residual = 4.419894e-20, No Iterations 1
DILUPBiCG:  Solving for T, Initial residual = 6.248389e-17, Final residual = 6.248389e-17, No Iterations 0
Time = 1.045

DILUPBiCG:  Solving for T, Initial residual = 0.00012636207, Final residual = 1.4276292e-20, No Iterations 1
DILUPBiCG:  Solving for T, Initial residual = 6.0940331e-17, Final residual = 6.0940331e-17, No Iterations 0
Time = 1.05

DILUPBiCG:  Solving for T, Initial residual = 0.00011791602, Final residual = 2.6468995e-20, No Iterations 1
DILUPBiCG:  Solving for T, Initial residual = 6.2411962e-17, Final residual = 6.2411962e-17, No Iterations 0
Time = 1.055

DILUPBiCG:  Solving for T, Initial residual = 0.00010992261, Final residual = 2.4840465e-20, No Iterations 1
DILUPBiCG:  Solving for T, Initial residual = 6.1652042e-17, Final residual = 6.1652042e-17, No Iterations 0
Time = 1.06

DILUPBiCG:  Solving for T, Initial residual = 0.00010236667, Final residual = 1.139344e-20, No Iterations 1
DILUPBiCG:  Solving for T, Initial residual = 6.2553851e-17, Final residual = 6.2553851e-17, No Iterations 0
Time = 1.065

DILUPBiCG:  Solving for T, Initial residual = 9.5233282e-05, Final residual = 2.3627487e-20, No Iterations 1
DILUPBiCG:  Solving for T, Initial residual = 6.4394369e-17, Final residual = 6.4394369e-17, No Iterations 0
Time = 1.07

DILUPBiCG:  Solving for T, Initial residual = 8.8506957e-05, Final residual = 1.7845594e-20, No Iterations 1
DILUPBiCG:  Solving for T, Initial residual = 6.0987973e-17, Final residual = 6.0987973e-17, No Iterations 0
Time = 1.075

DILUPBiCG:  Solving for T, Initial residual = 8.2171913e-05, Final residual = 3.7654372e-20, No Iterations 1
DILUPBiCG:  Solving for T, Initial residual = 6.1500415e-17, Final residual = 6.1500415e-17, No Iterations 0
Time = 1.08

DILUPBiCG:  Solving for T, Initial residual = 7.621254e-05, Final residual = 3.3088964e-20, No Iterations 1
DILUPBiCG:  Solving for T, Initial residual = 5.9901799e-17, Final residual = 5.9901799e-17, No Iterations 0
Time = 1.085

DILUPBiCG:  Solving for T, Initial residual = 7.0613387e-05, Final residual = 1.7119869e-20, No Iterations 1
DILUPBiCG:  Solving for T, Initial residual = 6.1760647e-17, Final residual = 6.1760647e-17, No Iterations 0
Time = 1.09

DILUPBiCG:  Solving for T, Initial residual = 6.5358933e-05, Final residual = 7.3630753e-21, No Iterations 1
DILUPBiCG:  Solving for T, Initial residual = 6.0438836e-17, Final residual = 6.0438836e-17, No Iterations 0
Time = 1.095

DILUPBiCG:  Solving for T, Initial residual = 6.0433748e-05, Final residual = 1.003222e-20, No Iterations 1
DILUPBiCG:  Solving for T, Initial residual = 6.0561839e-17, Final residual = 6.0561839e-17, No Iterations 0
Time = 1.1

DILUPBiCG:  Solving for T, Initial residual = 5.5822716e-05, Final residual = 6.2561112e-21, No Iterations 1
DILUPBiCG:  Solving for T, Initial residual = 6.1173456e-17, Final residual = 6.1173456e-17, No Iterations 0
Time = 1.105

DILUPBiCG:  Solving for T, Initial residual = 5.1510999e-05, Final residual = 5.369109e-21, No Iterations 1
DILUPBiCG:  Solving for T, Initial residual = 6.0614759e-17, Final residual = 6.0614759e-17, No Iterations 0
Time = 1.11

DILUPBiCG:  Solving for T, Initial residual = 4.7483889e-05, Final residual = 5.1581979e-21, No Iterations 1
DILUPBiCG:  Solving for T, Initial residual = 5.8470532e-17, Final residual = 5.8470532e-17, No Iterations 0
Time = 1.115

DILUPBiCG:  Solving for T, Initial residual = 4.3727009e-05, Final residual = 1.1004458e-20, No Iterations 1
DILUPBiCG:  Solving for T, Initial residual = 6.0438148e-17, Final residual = 6.0438148e-17, No Iterations 0
Time = 1.12

DILUPBiCG:  Solving for T, Initial residual = 4.0226398e-05, Final residual = 9.66936e-21, No Iterations 1
DILUPBiCG:  Solving for T, Initial residual = 5.9223174e-17, Final residual = 5.9223174e-17, No Iterations 0
Time = 1.125

DILUPBiCG:  Solving for T, Initial residual = 3.696844e-05, Final residual = 1.6762614e-20, No Iterations 1
DILUPBiCG:  Solving for T, Initial residual = 6.0107751e-17, Final residual = 6.0107751e-17, No Iterations 0
Time = 1.13

DILUPBiCG:  Solving for T, Initial residual = 3.3939863e-05, Final residual = 7.8653136e-21, No Iterations 1
DILUPBiCG:  Solving for T, Initial residual = 5.8730782e-17, Final residual = 5.8730782e-17, No Iterations 0
Time = 1.135

DILUPBiCG:  Solving for T, Initial residual = 3.1127803e-05, Final residual = 1.4602203e-20, No Iterations 1
DILUPBiCG:  Solving for T, Initial residual = 5.9617941e-17, Final residual = 5.9617941e-17, No Iterations 0
Time = 1.14

DILUPBiCG:  Solving for T, Initial residual = 2.8519819e-05, Final residual = 3.2005671e-21, No Iterations 1
DILUPBiCG:  Solving for T, Initial residual = 5.8515629e-17, Final residual = 5.8515629e-17, No Iterations 0
Time = 1.145

DILUPBiCG:  Solving for T, Initial residual = 2.6103908e-05, Final residual = 5.0682934e-21, No Iterations 1
DILUPBiCG:  Solving for T, Initial residual = 5.8201598e-17, Final residual = 5.8201598e-17, No Iterations 0
Time = 1.15

DILUPBiCG:  Solving for T, Initial residual = 2.3868513e-05, Final residual = 2.5055967e-21, No Iterations 1
DILUPBiCG:  Solving for T, Initial residual = 5.9435184e-17, Final residual = 5.9435184e-17, No Iterations 0
Time = 1.155

DILUPBiCG:  Solving for T, Initial residual = 2.1802531e-05, Final residual = 8.8992555e-21, No Iterations 1
DILUPBiCG:  Solving for T, Initial residual = 5.8965532e-17, Final residual = 5.8965532e-17, No Iterations 0
Time = 1.16

DILUPBiCG:  Solving for T, Initial residual = 1.9895317e-05, Final residual = 4.3190764e-21, No Iterations 1
DILUPBiCG:  Solving for T, Initial residual = 5.8557295e-17, Final residual = 5.8557295e-17, No Iterations 0
Time = 1.165

DILUPBiCG:  Solving for T, Initial residual = 1.8136686e-05, Final residual = 5.2314323e-21, No Iterations 1
DILUPBiCG:  Solving for T, Initial residual = 5.7138181e-17, Final residual = 5.7138181e-17, No Iterations 0
Time = 1.17

DILUPBiCG:  Solving for T, Initial residual = 1.6516915e-05, Final residual = 2.8892257e-21, No Iterations 1
DILUPBiCG:  Solving for T, Initial residual = 5.6837317e-17, Final residual = 5.6837317e-17, No Iterations 0
Time = 1.175

DILUPBiCG:  Solving for T, Initial residual = 1.5026736e-05, Final residual = 2.464796e-21, No Iterations 1
DILUPBiCG:  Solving for T, Initial residual = 5.619684e-17, Final residual = 5.619684e-17, No Iterations 0
Time = 1.18

DILUPBiCG:  Solving for T, Initial residual = 1.3657336e-05, Final residual = 4.6426029e-21, No Iterations 1
DILUPBiCG:  Solving for T, Initial residual = 5.6512299e-17, Final residual = 5.6512299e-17, No Iterations 0
Time = 1.185

DILUPBiCG:  Solving for T, Initial residual = 1.2400346e-05, Final residual = 3.2461562e-21, No Iterations 1
DILUPBiCG:  Solving for T, Initial residual = 5.5752976e-17, Final residual = 5.5752976e-17, No Iterations 0
Time = 1.19

DILUPBiCG:  Solving for T, Initial residual = 1.1247837e-05, Final residual = 1.2754694e-21, No Iterations 1
DILUPBiCG:  Solving for T, Initial residual = 5.7409783e-17, Final residual = 5.7409783e-17, No Iterations 0
Time = 1.195

DILUPBiCG:  Solving for T, Initial residual = 1.019231e-05, Final residual = 2.2453372e-21, No Iterations 1
DILUPBiCG:  Solving for T, Initial residual = 5.7560131e-17, Final residual = 5.7560131e-17, No Iterations 0
Time = 1.2

DILUPBiCG:  Solving for T, Initial residual = 9.226683e-06, Final residual = 1.960135e-21, No Iterations 1
DILUPBiCG:  Solving for T, Initial residual = 5.5269176e-17, Final residual = 5.5269176e-17, No Iterations 0
Time = 1.205

DILUPBiCG:  Solving for T, Initial residual = 8.3442821e-06, Final residual = 1.9205189e-21, No Iterations 1
DILUPBiCG:  Solving for T, Initial residual = 5.6388188e-17, Final residual = 5.6388188e-17, No Iterations 0
Time = 1.21

DILUPBiCG:  Solving for T, Initial residual = 7.5388276e-06, Final residual = 1.3842733e-21, No Iterations 1
DILUPBiCG:  Solving for T, Initial residual = 5.4382305e-17, Final residual = 5.4382305e-17, No Iterations 0
Time = 1.215

DILUPBiCG:  Solving for T, Initial residual = 6.8044211e-06, Final residual = 6.6083833e-22, No Iterations 1
DILUPBiCG:  Solving for T, Initial residual = 5.5731697e-17, Final residual = 5.5731697e-17, No Iterations 0
Time = 1.22

DILUPBiCG:  Solving for T, Initial residual = 6.1355317e-06, Final residual = 4.201406e-21, No Iterations 1
DILUPBiCG:  Solving for T, Initial residual = 5.5552928e-17, Final residual = 5.5552928e-17, No Iterations 0
Time = 1.225

DILUPBiCG:  Solving for T, Initial residual = 5.5269815e-06, Final residual = 1.884981e-21, No Iterations 1
DILUPBiCG:  Solving for T, Initial residual = 5.6776299e-17, Final residual = 5.6776299e-17, No Iterations 0
Time = 1.23

DILUPBiCG:  Solving for T, Initial residual = 4.9739311e-06, Final residual = 4.9152338e-22, No Iterations 1
DILUPBiCG:  Solving for T, Initial residual = 5.6382493e-17, Final residual = 5.6382493e-17, No Iterations 0
Time = 1.235

DILUPBiCG:  Solving for T, Initial residual = 4.4718646e-06, Final residual = 1.00626e-21, No Iterations 1
DILUPBiCG:  Solving for T, Initial residual = 5.5511822e-17, Final residual = 5.5511822e-17, No Iterations 0
Time = 1.24

DILUPBiCG:  Solving for T, Initial residual = 4.0165749e-06, Final residual = 1.0015902e-21, No Iterations 1
DILUPBiCG:  Solving for T, Initial residual = 5.5642271e-17, Final residual = 5.5642271e-17, No Iterations 0
Time = 1.245

DILUPBiCG:  Solving for T, Initial residual = 3.6041482e-06, Final residual = 8.529676e-22, No Iterations 1
DILUPBiCG:  Solving for T, Initial residual = 5.4191343e-17, Final residual = 5.4191343e-17, No Iterations 0
Time = 1.25

DILUPBiCG:  Solving for T, Initial residual = 3.2309499e-06, Final residual = 5.9822782e-22, No Iterations 1
DILUPBiCG:  Solving for T, Initial residual = 5.4697004e-17, Final residual = 5.4697004e-17, No Iterations 0
Time = 1.255

DILUPBiCG:  Solving for T, Initial residual = 2.8936092e-06, Final residual = 6.880406e-22, No Iterations 1
DILUPBiCG:  Solving for T, Initial residual = 5.4055058e-17, Final residual = 5.4055058e-17, No Iterations 0
Time = 1.26

DILUPBiCG:  Solving for T, Initial residual = 2.589005e-06, Final residual = 8.0442932e-22, No Iterations 1
DILUPBiCG:  Solving for T, Initial residual = 5.4104097e-17, Final residual = 5.4104097e-17, No Iterations 0
Time = 1.265

DILUPBiCG:  Solving for T, Initial residual = 2.3142514e-06, Final residual = 2.5312604e-22, No Iterations 1
DILUPBiCG:  Solving for T, Initial residual = 5.6419341e-17, Final residual = 5.6419341e-17, No Iterations 0
Time = 1.27

DILUPBiCG:  Solving for T, Initial residual = 2.0666844e-06, Final residual = 5.0593938e-22, No Iterations 1
DILUPBiCG:  Solving for T, Initial residual = 5.5345788e-17, Final residual = 5.5345788e-17, No Iterations 0
Time = 1.275

DILUPBiCG:  Solving for T, Initial residual = 1.8438478e-06, Final residual = 3.306006e-22, No Iterations 1
DILUPBiCG:  Solving for T, Initial residual = 5.2608061e-17, Final residual = 5.2608061e-17, No Iterations 0
Time = 1.28

DILUPBiCG:  Solving for T, Initial residual = 1.6434807e-06, Final residual = 3.4062454e-22, No Iterations 1
DILUPBiCG:  Solving for T, Initial residual = 5.2373232e-17, Final residual = 5.2373232e-17, No Iterations 0
Time = 1.285

DILUPBiCG:  Solving for T, Initial residual = 1.4635048e-06, Final residual = 3.3432947e-22, No Iterations 1
DILUPBiCG:  Solving for T, Initial residual = 5.5298465e-17, Final residual = 5.5298465e-17, No Iterations 0
Time = 1.29

DILUPBiCG:  Solving for T, Initial residual = 1.3020122e-06, Final residual = 3.2392722e-22, No Iterations 1
DILUPBiCG:  Solving for T, Initial residual = 5.484337e-17, Final residual = 5.484337e-17, No Iterations 0
Time = 1.295

DILUPBiCG:  Solving for T, Initial residual = 1.1572541e-06, Final residual = 1.1312911e-22, No Iterations 1
DILUPBiCG:  Solving for T, Initial residual = 5.3731586e-17, Final residual = 5.3731586e-17, No Iterations 0
Time = 1.3

DILUPBiCG:  Solving for T, Initial residual = 1.0276294e-06, Final residual = 9.6029124e-23, No Iterations 1
DILUPBiCG:  Solving for T, Initial residual = 5.4229386e-17, Final residual = 5.4229386e-17, No Iterations 0
Time = 1.305

DILUPBiCG:  Solving for T, Initial residual = 9.1167456e-07, Final residual = 9.1167456e-07, No Iterations 0
DILUPBiCG:  Solving for T, Initial residual = 9.1167456e-07, Final residual = 9.1167456e-07, No Iterations 0
Time = 1.31

DILUPBiCG:  Solving for T, Initial residual = 9.1167456e-07, Final residual = 9.1167456e-07, No Iterations 0
DILUPBiCG:  Solving for T, Initial residual = 9.1167456e-07, Final residual = 9.1167456e-07, No Iterations 0
Time = 1.315

DILUPBiCG:  Solving for T, Initial residual = 9.1167456e-07, Final residual = 9.1167456e-07, No Iterations 0
DILUPBiCG:  Solving for T, Initial residual = 9.1167456e-07, Final residual = 9.1167456e-07, No Iterations 0
Time = 1.32

DILUPBiCG:  Solving for T, Initial residual = 9.1167456e-07, Final residual = 9.1167456e-07, No Iterations 0
DILUPBiCG:  Solving for T, Initial residual = 9.1167456e-07, Final residual = 9.1167456e-07, No Iterations 0
Time = 1.325

DILUPBiCG:  Solving for T, Initial residual = 9.1167456e-07, Final residual = 9.1167456e-07, No Iterations 0
DILUPBiCG:  Solving for T, Initial residual = 9.1167456e-07, Final residual = 9.1167456e-07, No Iterations 0
Time = 1.33

DILUPBiCG:  Solving for T, Initial residual = 9.1167456e-07, Final residual = 9.1167456e-07, No Iterations 0
DILUPBiCG:  Solving for T, Initial residual = 9.1167456e-07, Final residual = 9.1167456e-07, No Iterations 0
Time = 1.335

DILUPBiCG:  Solving for T, Initial residual = 9.1167456e-07, Final residual = 9.1167456e-07, No Iterations 0
DILUPBiCG:  Solving for T, Initial residual = 9.1167456e-07, Final residual = 9.1167456e-07, No Iterations 0
Time = 1.34

DILUPBiCG:  Solving for T, Initial residual = 9.1167456e-07, Final residual = 9.1167456e-07, No Iterations 0
DILUPBiCG:  Solving for T, Initial residual = 9.1167456e-07, Final residual = 9.1167456e-07, No Iterations 0
Time = 1.345

DILUPBiCG:  Solving for T, Initial residual = 9.1167456e-07, Final residual = 9.1167456e-07, No Iterations 0
DILUPBiCG:  Solving for T, Initial residual = 9.1167456e-07, Final residual = 9.1167456e-07, No Iterations 0
Time = 1.35

DILUPBiCG:  Solving for T, Initial residual = 9.1167456e-07, Final residual = 9.1167456e-07, No Iterations 0
DILUPBiCG:  Solving for T, Initial residual = 9.1167456e-07, Final residual = 9.1167456e-07, No Iterations 0
Time = 1.355

DILUPBiCG:  Solving for T, Initial residual = 9.1167456e-07, Final residual = 9.1167456e-07, No Iterations 0
DILUPBiCG:  Solving for T, Initial residual = 9.1167456e-07, Final residual = 9.1167456e-07, No Iterations 0
Time = 1.36

DILUPBiCG:  Solving for T, Initial residual = 9.1167456e-07, Final residual = 9.1167456e-07, No Iterations 0
DILUPBiCG:  Solving for T, Initial residual = 9.1167456e-07, Final residual = 9.1167456e-07, No Iterations 0
Time = 1.365

DILUPBiCG:  Solving for T, Initial residual = 9.1167456e-07, Final residual = 9.1167456e-07, No Iterations 0
DILUPBiCG:  Solving for T, Initial residual = 9.1167456e-07, Final residual = 9.1167456e-07, No Iterations 0
Time = 1.37

DILUPBiCG:  Solving for T, Initial residual = 9.1167456e-07, Final residual = 9.1167456e-07, No Iterations 0
DILUPBiCG:  Solving for T, Initial residual = 9.1167456e-07, Final residual = 9.1167456e-07, No Iterations 0
Time = 1.375

DILUPBiCG:  Solving for T, Initial residual = 9.1167456e-07, Final residual = 9.1167456e-07, No Iterations 0
DILUPBiCG:  Solving for T, Initial residual = 9.1167456e-07, Final residual = 9.1167456e-07, No Iterations 0
Time = 1.38

DILUPBiCG:  Solving for T, Initial residual = 9.1167456e-07, Final residual = 9.1167456e-07, No Iterations 0
DILUPBiCG:  Solving for T, Initial residual = 9.1167456e-07, Final residual = 9.1167456e-07, No Iterations 0
Time = 1.385

DILUPBiCG:  Solving for T, Initial residual = 9.1167456e-07, Final residual = 9.1167456e-07, No Iterations 0
DILUPBiCG:  Solving for T, Initial residual = 9.1167456e-07, Final residual = 9.1167456e-07, No Iterations 0
Time = 1.39

DILUPBiCG:  Solving for T, Initial residual = 9.1167456e-07, Final residual = 9.1167456e-07, No Iterations 0
DILUPBiCG:  Solving for T, Initial residual = 9.1167456e-07, Final residual = 9.1167456e-07, No Iterations 0
Time = 1.395

DILUPBiCG:  Solving for T, Initial residual = 9.1167456e-07, Final residual = 9.1167456e-07, No Iterations 0
DILUPBiCG:  Solving for T, Initial residual = 9.1167456e-07, Final residual = 9.1167456e-07, No Iterations 0
Time = 1.4

DILUPBiCG:  Solving for T, Initial residual = 9.1167456e-07, Final residual = 9.1167456e-07, No Iterations 0
DILUPBiCG:  Solving for T, Initial residual = 9.1167456e-07, Final residual = 9.1167456e-07, No Iterations 0
Time = 1.405

DILUPBiCG:  Solving for T, Initial residual = 9.1167456e-07, Final residual = 9.1167456e-07, No Iterations 0
DILUPBiCG:  Solving for T, Initial residual = 9.1167456e-07, Final residual = 9.1167456e-07, No Iterations 0
Time = 1.41

DILUPBiCG:  Solving for T, Initial residual = 9.1167456e-07, Final residual = 9.1167456e-07, No Iterations 0
DILUPBiCG:  Solving for T, Initial residual = 9.1167456e-07, Final residual = 9.1167456e-07, No Iterations 0
Time = 1.415

DILUPBiCG:  Solving for T, Initial residual = 9.1167456e-07, Final residual = 9.1167456e-07, No Iterations 0
DILUPBiCG:  Solving for T, Initial residual = 9.1167456e-07, Final residual = 9.1167456e-07, No Iterations 0
Time = 1.42

DILUPBiCG:  Solving for T, Initial residual = 9.1167456e-07, Final residual = 9.1167456e-07, No Iterations 0
DILUPBiCG:  Solving for T, Initial residual = 9.1167456e-07, Final residual = 9.1167456e-07, No Iterations 0
Time = 1.425

DILUPBiCG:  Solving for T, Initial residual = 9.1167456e-07, Final residual = 9.1167456e-07, No Iterations 0
DILUPBiCG:  Solving for T, Initial residual = 9.1167456e-07, Final residual = 9.1167456e-07, No Iterations 0
Time = 1.43

DILUPBiCG:  Solving for T, Initial residual = 9.1167456e-07, Final residual = 9.1167456e-07, No Iterations 0
DILUPBiCG:  Solving for T, Initial residual = 9.1167456e-07, Final residual = 9.1167456e-07, No Iterations 0
Time = 1.435

DILUPBiCG:  Solving for T, Initial residual = 9.1167456e-07, Final residual = 9.1167456e-07, No Iterations 0
DILUPBiCG:  Solving for T, Initial residual = 9.1167456e-07, Final residual = 9.1167456e-07, No Iterations 0
Time = 1.44

DILUPBiCG:  Solving for T, Initial residual = 9.1167456e-07, Final residual = 9.1167456e-07, No Iterations 0
DILUPBiCG:  Solving for T, Initial residual = 9.1167456e-07, Final residual = 9.1167456e-07, No Iterations 0
Time = 1.445

DILUPBiCG:  Solving for T, Initial residual = 9.1167456e-07, Final residual = 9.1167456e-07, No Iterations 0
DILUPBiCG:  Solving for T, Initial residual = 9.1167456e-07, Final residual = 9.1167456e-07, No Iterations 0
Time = 1.45

DILUPBiCG:  Solving for T, Initial residual = 9.1167456e-07, Final residual = 9.1167456e-07, No Iterations 0
DILUPBiCG:  Solving for T, Initial residual = 9.1167456e-07, Final residual = 9.1167456e-07, No Iterations 0
Time = 1.455

DILUPBiCG:  Solving for T, Initial residual = 9.1167456e-07, Final residual = 9.1167456e-07, No Iterations 0
DILUPBiCG:  Solving for T, Initial residual = 9.1167456e-07, Final residual = 9.1167456e-07, No Iterations 0
Time = 1.46

DILUPBiCG:  Solving for T, Initial residual = 9.1167456e-07, Final residual = 9.1167456e-07, No Iterations 0
DILUPBiCG:  Solving for T, Initial residual = 9.1167456e-07, Final residual = 9.1167456e-07, No Iterations 0
Time = 1.465

DILUPBiCG:  Solving for T, Initial residual = 9.1167456e-07, Final residual = 9.1167456e-07, No Iterations 0
DILUPBiCG:  Solving for T, Initial residual = 9.1167456e-07, Final residual = 9.1167456e-07, No Iterations 0
Time = 1.47

DILUPBiCG:  Solving for T, Initial residual = 9.1167456e-07, Final residual = 9.1167456e-07, No Iterations 0
DILUPBiCG:  Solving for T, Initial residual = 9.1167456e-07, Final residual = 9.1167456e-07, No Iterations 0
Time = 1.475

DILUPBiCG:  Solving for T, Initial residual = 9.1167456e-07, Final residual = 9.1167456e-07, No Iterations 0
DILUPBiCG:  Solving for T, Initial residual = 9.1167456e-07, Final residual = 9.1167456e-07, No Iterations 0
Time = 1.48

DILUPBiCG:  Solving for T, Initial residual = 9.1167456e-07, Final residual = 9.1167456e-07, No Iterations 0
DILUPBiCG:  Solving for T, Initial residual = 9.1167456e-07, Final residual = 9.1167456e-07, No Iterations 0
Time = 1.485

DILUPBiCG:  Solving for T, Initial residual = 9.1167456e-07, Final residual = 9.1167456e-07, No Iterations 0
DILUPBiCG:  Solving for T, Initial residual = 9.1167456e-07, Final residual = 9.1167456e-07, No Iterations 0
Time = 1.49

DILUPBiCG:  Solving for T, Initial residual = 9.1167456e-07, Final residual = 9.1167456e-07, No Iterations 0
DILUPBiCG:  Solving for T, Initial residual = 9.1167456e-07, Final residual = 9.1167456e-07, No Iterations 0
Time = 1.495

DILUPBiCG:  Solving for T, Initial residual = 9.1167456e-07, Final residual = 9.1167456e-07, No Iterations 0
DILUPBiCG:  Solving for T, Initial residual = 9.1167456e-07, Final residual = 9.1167456e-07, No Iterations 0
Time = 1.5

DILUPBiCG:  Solving for T, Initial residual = 9.1167456e-07, Final residual = 9.1167456e-07, No Iterations 0
DILUPBiCG:  Solving for T, Initial residual = 9.1167456e-07, Final residual = 9.1167456e-07, No Iterations 0
Time = 1.505

DILUPBiCG:  Solving for T, Initial residual = 9.1167456e-07, Final residual = 9.1167456e-07, No Iterations 0
DILUPBiCG:  Solving for T, Initial residual = 9.1167456e-07, Final residual = 9.1167456e-07, No Iterations 0
Time = 1.51

DILUPBiCG:  Solving for T, Initial residual = 9.1167456e-07, Final residual = 9.1167456e-07, No Iterations 0
DILUPBiCG:  Solving for T, Initial residual = 9.1167456e-07, Final residual = 9.1167456e-07, No Iterations 0
Time = 1.515

DILUPBiCG:  Solving for T, Initial residual = 9.1167456e-07, Final residual = 9.1167456e-07, No Iterations 0
DILUPBiCG:  Solving for T, Initial residual = 9.1167456e-07, Final residual = 9.1167456e-07, No Iterations 0
Time = 1.52

DILUPBiCG:  Solving for T, Initial residual = 9.1167456e-07, Final residual = 9.1167456e-07, No Iterations 0
DILUPBiCG:  Solving for T, Initial residual = 9.1167456e-07, Final residual = 9.1167456e-07, No Iterations 0
Time = 1.525

DILUPBiCG:  Solving for T, Initial residual = 9.1167456e-07, Final residual = 9.1167456e-07, No Iterations 0
DILUPBiCG:  Solving for T, Initial residual = 9.1167456e-07, Final residual = 9.1167456e-07, No Iterations 0
Time = 1.53

DILUPBiCG:  Solving for T, Initial residual = 9.1167456e-07, Final residual = 9.1167456e-07, No Iterations 0
DILUPBiCG:  Solving for T, Initial residual = 9.1167456e-07, Final residual = 9.1167456e-07, No Iterations 0
Time = 1.535

DILUPBiCG:  Solving for T, Initial residual = 9.1167456e-07, Final residual = 9.1167456e-07, No Iterations 0
DILUPBiCG:  Solving for T, Initial residual = 9.1167456e-07, Final residual = 9.1167456e-07, No Iterations 0
Time = 1.54

DILUPBiCG:  Solving for T, Initial residual = 9.1167456e-07, Final residual = 9.1167456e-07, No Iterations 0
DILUPBiCG:  Solving for T, Initial residual = 9.1167456e-07, Final residual = 9.1167456e-07, No Iterations 0
Time = 1.545

DILUPBiCG:  Solving for T, Initial residual = 9.1167456e-07, Final residual = 9.1167456e-07, No Iterations 0
DILUPBiCG:  Solving for T, Initial residual = 9.1167456e-07, Final residual = 9.1167456e-07, No Iterations 0
Time = 1.55

DILUPBiCG:  Solving for T, Initial residual = 9.1167456e-07, Final residual = 9.1167456e-07, No Iterations 0
DILUPBiCG:  Solving for T, Initial residual = 9.1167456e-07, Final residual = 9.1167456e-07, No Iterations 0
Time = 1.555

DILUPBiCG:  Solving for T, Initial residual = 9.1167456e-07, Final residual = 9.1167456e-07, No Iterations 0
DILUPBiCG:  Solving for T, Initial residual = 9.1167456e-07, Final residual = 9.1167456e-07, No Iterations 0
Time = 1.56

DILUPBiCG:  Solving for T, Initial residual = 9.1167456e-07, Final residual = 9.1167456e-07, No Iterations 0
DILUPBiCG:  Solving for T, Initial residual = 9.1167456e-07, Final residual = 9.1167456e-07, No Iterations 0
Time = 1.565

DILUPBiCG:  Solving for T, Initial residual = 9.1167456e-07, Final residual = 9.1167456e-07, No Iterations 0
DILUPBiCG:  Solving for T, Initial residual = 9.1167456e-07, Final residual = 9.1167456e-07, No Iterations 0
Time = 1.57

DILUPBiCG:  Solving for T, Initial residual = 9.1167456e-07, Final residual = 9.1167456e-07, No Iterations 0
DILUPBiCG:  Solving for T, Initial residual = 9.1167456e-07, Final residual = 9.1167456e-07, No Iterations 0
Time = 1.575

DILUPBiCG:  Solving for T, Initial residual = 9.1167456e-07, Final residual = 9.1167456e-07, No Iterations 0
DILUPBiCG:  Solving for T, Initial residual = 9.1167456e-07, Final residual = 9.1167456e-07, No Iterations 0
Time = 1.58

DILUPBiCG:  Solving for T, Initial residual = 9.1167456e-07, Final residual = 9.1167456e-07, No Iterations 0
DILUPBiCG:  Solving for T, Initial residual = 9.1167456e-07, Final residual = 9.1167456e-07, No Iterations 0
Time = 1.585

DILUPBiCG:  Solving for T, Initial residual = 9.1167456e-07, Final residual = 9.1167456e-07, No Iterations 0
DILUPBiCG:  Solving for T, Initial residual = 9.1167456e-07, Final residual = 9.1167456e-07, No Iterations 0
Time = 1.59

DILUPBiCG:  Solving for T, Initial residual = 9.1167456e-07, Final residual = 9.1167456e-07, No Iterations 0
DILUPBiCG:  Solving for T, Initial residual = 9.1167456e-07, Final residual = 9.1167456e-07, No Iterations 0
Time = 1.595

DILUPBiCG:  Solving for T, Initial residual = 9.1167456e-07, Final residual = 9.1167456e-07, No Iterations 0
DILUPBiCG:  Solving for T, Initial residual = 9.1167456e-07, Final residual = 9.1167456e-07, No Iterations 0
Time = 1.6

DILUPBiCG:  Solving for T, Initial residual = 9.1167456e-07, Final residual = 9.1167456e-07, No Iterations 0
DILUPBiCG:  Solving for T, Initial residual = 9.1167456e-07, Final residual = 9.1167456e-07, No Iterations 0
Time = 1.605

DILUPBiCG:  Solving for T, Initial residual = 9.1167456e-07, Final residual = 9.1167456e-07, No Iterations 0
DILUPBiCG:  Solving for T, Initial residual = 9.1167456e-07, Final residual = 9.1167456e-07, No Iterations 0
Time = 1.61

DILUPBiCG:  Solving for T, Initial residual = 9.1167456e-07, Final residual = 9.1167456e-07, No Iterations 0
DILUPBiCG:  Solving for T, Initial residual = 9.1167456e-07, Final residual = 9.1167456e-07, No Iterations 0
Time = 1.615

DILUPBiCG:  Solving for T, Initial residual = 9.1167456e-07, Final residual = 9.1167456e-07, No Iterations 0
DILUPBiCG:  Solving for T, Initial residual = 9.1167456e-07, Final residual = 9.1167456e-07, No Iterations 0
Time = 1.62

DILUPBiCG:  Solving for T, Initial residual = 9.1167456e-07, Final residual = 9.1167456e-07, No Iterations 0
DILUPBiCG:  Solving for T, Initial residual = 9.1167456e-07, Final residual = 9.1167456e-07, No Iterations 0
Time = 1.625

DILUPBiCG:  Solving for T, Initial residual = 9.1167456e-07, Final residual = 9.1167456e-07, No Iterations 0
DILUPBiCG:  Solving for T, Initial residual = 9.1167456e-07, Final residual = 9.1167456e-07, No Iterations 0
Time = 1.63

DILUPBiCG:  Solving for T, Initial residual = 9.1167456e-07, Final residual = 9.1167456e-07, No Iterations 0
DILUPBiCG:  Solving for T, Initial residual = 9.1167456e-07, Final residual = 9.1167456e-07, No Iterations 0
Time = 1.635

DILUPBiCG:  Solving for T, Initial residual = 9.1167456e-07, Final residual = 9.1167456e-07, No Iterations 0
DILUPBiCG:  Solving for T, Initial residual = 9.1167456e-07, Final residual = 9.1167456e-07, No Iterations 0
Time = 1.64

DILUPBiCG:  Solving for T, Initial residual = 9.1167456e-07, Final residual = 9.1167456e-07, No Iterations 0
DILUPBiCG:  Solving for T, Initial residual = 9.1167456e-07, Final residual = 9.1167456e-07, No Iterations 0
Time = 1.645

DILUPBiCG:  Solving for T, Initial residual = 9.1167456e-07, Final residual = 9.1167456e-07, No Iterations 0
DILUPBiCG:  Solving for T, Initial residual = 9.1167456e-07, Final residual = 9.1167456e-07, No Iterations 0
Time = 1.65

DILUPBiCG:  Solving for T, Initial residual = 9.1167456e-07, Final residual = 9.1167456e-07, No Iterations 0
DILUPBiCG:  Solving for T, Initial residual = 9.1167456e-07, Final residual = 9.1167456e-07, No Iterations 0
Time = 1.655

DILUPBiCG:  Solving for T, Initial residual = 9.1167456e-07, Final residual = 9.1167456e-07, No Iterations 0
DILUPBiCG:  Solving for T, Initial residual = 9.1167456e-07, Final residual = 9.1167456e-07, No Iterations 0
Time = 1.66

DILUPBiCG:  Solving for T, Initial residual = 9.1167456e-07, Final residual = 9.1167456e-07, No Iterations 0
DILUPBiCG:  Solving for T, Initial residual = 9.1167456e-07, Final residual = 9.1167456e-07, No Iterations 0
Time = 1.665

DILUPBiCG:  Solving for T, Initial residual = 9.1167456e-07, Final residual = 9.1167456e-07, No Iterations 0
DILUPBiCG:  Solving for T, Initial residual = 9.1167456e-07, Final residual = 9.1167456e-07, No Iterations 0
Time = 1.67

DILUPBiCG:  Solving for T, Initial residual = 9.1167456e-07, Final residual = 9.1167456e-07, No Iterations 0
DILUPBiCG:  Solving for T, Initial residual = 9.1167456e-07, Final residual = 9.1167456e-07, No Iterations 0
Time = 1.675

DILUPBiCG:  Solving for T, Initial residual = 9.1167456e-07, Final residual = 9.1167456e-07, No Iterations 0
DILUPBiCG:  Solving for T, Initial residual = 9.1167456e-07, Final residual = 9.1167456e-07, No Iterations 0
Time = 1.68

DILUPBiCG:  Solving for T, Initial residual = 9.1167456e-07, Final residual = 9.1167456e-07, No Iterations 0
DILUPBiCG:  Solving for T, Initial residual = 9.1167456e-07, Final residual = 9.1167456e-07, No Iterations 0
Time = 1.685

DILUPBiCG:  Solving for T, Initial residual = 9.1167456e-07, Final residual = 9.1167456e-07, No Iterations 0
DILUPBiCG:  Solving for T, Initial residual = 9.1167456e-07, Final residual = 9.1167456e-07, No Iterations 0
Time = 1.69

DILUPBiCG:  Solving for T, Initial residual = 9.1167456e-07, Final residual = 9.1167456e-07, No Iterations 0
DILUPBiCG:  Solving for T, Initial residual = 9.1167456e-07, Final residual = 9.1167456e-07, No Iterations 0
Time = 1.695

DILUPBiCG:  Solving for T, Initial residual = 9.1167456e-07, Final residual = 9.1167456e-07, No Iterations 0
DILUPBiCG:  Solving for T, Initial residual = 9.1167456e-07, Final residual = 9.1167456e-07, No Iterations 0
Time = 1.7

DILUPBiCG:  Solving for T, Initial residual = 9.1167456e-07, Final residual = 9.1167456e-07, No Iterations 0
DILUPBiCG:  Solving for T, Initial residual = 9.1167456e-07, Final residual = 9.1167456e-07, No Iterations 0
Time = 1.705

DILUPBiCG:  Solving for T, Initial residual = 9.1167456e-07, Final residual = 9.1167456e-07, No Iterations 0
DILUPBiCG:  Solving for T, Initial residual = 9.1167456e-07, Final residual = 9.1167456e-07, No Iterations 0
Time = 1.71

DILUPBiCG:  Solving for T, Initial residual = 9.1167456e-07, Final residual = 9.1167456e-07, No Iterations 0
[...]
Time = 4.575

DILUPBiCG:  Solving for T, Initial residual = 9.1167456e-07, Final residual = 9.1167456e-07, No Iterations 0
DILUPBiCG:  Solving for T, Initial residual = 9.1167456e-07, Final residual = 9.1167456e-07, No Iterations 0
Time = 4.58

DILUPBiCG:  Solving for T, Initial residual = 9.1167456e-07, Final residual = 9.1167456e-07, No Iterations 0
DILUPBiCG:  Solving for T, Initial residual = 9.1167456e-07, Final residual = 9.1167456e-07, No Iterations 0
Time = 4.585

DILUPBiCG:  Solving for T, Initial residual = 9.1167456e-07, Final residual = 9.1167456e-07, No Iterations 0
DILUPBiCG:  Solving for T, Initial residual = 9.1167456e-07, Final residual = 9.1167456e-07, No Iterations 0
Time = 4.59

DILUPBiCG:  Solving for T, Initial residual = 9.1167456e-07, Final residual = 9.1167456e-07, No Iterations 0
DILUPBiCG:  Solving for T, Initial residual = 9.1167456e-07, Final residual = 9.1167456e-07, No Iterations 0
Time = 4.595

DILUPBiCG:  Solving for T, Initial residual = 9.1167456e-07, Final residual = 9.1167456e-07, No Iterations 0
DILUPBiCG:  Solving for T, Initial residual = 9.1167456e-07, Final residual = 9.1167456e-07, No Iterations 0
Time = 4.6

DILUPBiCG:  Solving for T, Initial residual = 9.1167456e-07, Final residual = 9.1167456e-07, No Iterations 0
DILUPBiCG:  Solving for T, Initial residual = 9.1167456e-07, Final residual = 9.1167456e-07, No Iterations 0
Time = 4.605

DILUPBiCG:  Solving for T, Initial residual = 9.1167456e-07, Final residual = 9.1167456e-07, No Iterations 0
DILUPBiCG:  Solving for T, Initial residual = 9.1167456e-07, Final residual = 9.1167456e-07, No Iterations 0
Time = 4.61

DILUPBiCG:  Solving for T, Initial residual = 9.1167456e-07, Final residual = 9.1167456e-07, No Iterations 0
DILUPBiCG:  Solving for T, Initial residual = 9.1167456e-07, Final residual = 9.1167456e-07, No Iterations 0
Time = 4.615

DILUPBiCG:  Solving for T, Initial residual = 9.1167456e-07, Final residual = 9.1167456e-07, No Iterations 0
DILUPBiCG:  Solving for T, Initial residual = 9.1167456e-07, Final residual = 9.1167456e-07, No Iterations 0
Time = 4.62

DILUPBiCG:  Solving for T, Initial residual = 9.1167456e-07, Final residual = 9.1167456e-07, No Iterations 0
DILUPBiCG:  Solving for T, Initial residual = 9.1167456e-07, Final residual = 9.1167456e-07, No Iterations 0
Time = 4.625

DILUPBiCG:  Solving for T, Initial residual = 9.1167456e-07, Final residual = 9.1167456e-07, No Iterations 0
DILUPBiCG:  Solving for T, Initial residual = 9.1167456e-07, Final residual = 9.1167456e-07, No Iterations 0
Time = 4.63

DILUPBiCG:  Solving for T, Initial residual = 9.1167456e-07, Final residual = 9.1167456e-07, No Iterations 0
DILUPBiCG:  Solving for T, Initial residual = 9.1167456e-07, Final residual = 9.1167456e-07, No Iterations 0
Time = 4.635

DILUPBiCG:  Solving for T, Initial residual = 9.1167456e-07, Final residual = 9.1167456e-07, No Iterations 0
DILUPBiCG:  Solving for T, Initial residual = 9.1167456e-07, Final residual = 9.1167456e-07, No Iterations 0
Time = 4.64

DILUPBiCG:  Solving for T, Initial residual = 9.1167456e-07, Final residual = 9.1167456e-07, No Iterations 0
DILUPBiCG:  Solving for T, Initial residual = 9.1167456e-07, Final residual = 9.1167456e-07, No Iterations 0
Time = 4.645

DILUPBiCG:  Solving for T, Initial residual = 9.1167456e-07, Final residual = 9.1167456e-07, No Iterations 0
DILUPBiCG:  Solving for T, Initial residual = 9.1167456e-07, Final residual = 9.1167456e-07, No Iterations 0
Time = 4.65

DILUPBiCG:  Solving for T, Initial residual = 9.1167456e-07, Final residual = 9.1167456e-07, No Iterations 0
DILUPBiCG:  Solving for T, Initial residual = 9.1167456e-07, Final residual = 9.1167456e-07, No Iterations 0
Time = 4.655

DILUPBiCG:  Solving for T, Initial residual = 9.1167456e-07, Final residual = 9.1167456e-07, No Iterations 0
DILUPBiCG:  Solving for T, Initial residual = 9.1167456e-07, Final residual = 9.1167456e-07, No Iterations 0
Time = 4.66

DILUPBiCG:  Solving for T, Initial residual = 9.1167456e-07, Final residual = 9.1167456e-07, No Iterations 0
DILUPBiCG:  Solving for T, Initial residual = 9.1167456e-07, Final residual = 9.1167456e-07, No Iterations 0
Time = 4.665

DILUPBiCG:  Solving for T, Initial residual = 9.1167456e-07, Final residual = 9.1167456e-07, No Iterations 0
DILUPBiCG:  Solving for T, Initial residual = 9.1167456e-07, Final residual = 9.1167456e-07, No Iterations 0
Time = 4.67

DILUPBiCG:  Solving for T, Initial residual = 9.1167456e-07, Final residual = 9.1167456e-07, No Iterations 0
DILUPBiCG:  Solving for T, Initial residual = 9.1167456e-07, Final residual = 9.1167456e-07, No Iterations 0
Time = 4.675

DILUPBiCG:  Solving for T, Initial residual = 9.1167456e-07, Final residual = 9.1167456e-07, No Iterations 0
DILUPBiCG:  Solving for T, Initial residual = 9.1167456e-07, Final residual = 9.1167456e-07, No Iterations 0
Time = 4.68

DILUPBiCG:  Solving for T, Initial residual = 9.1167456e-07, Final residual = 9.1167456e-07, No Iterations 0
DILUPBiCG:  Solving for T, Initial residual = 9.1167456e-07, Final residual = 9.1167456e-07, No Iterations 0
Time = 4.685

DILUPBiCG:  Solving for T, Initial residual = 9.1167456e-07, Final residual = 9.1167456e-07, No Iterations 0
DILUPBiCG:  Solving for T, Initial residual = 9.1167456e-07, Final residual = 9.1167456e-07, No Iterations 0
Time = 4.69

DILUPBiCG:  Solving for T, Initial residual = 9.1167456e-07, Final residual = 9.1167456e-07, No Iterations 0
DILUPBiCG:  Solving for T, Initial residual = 9.1167456e-07, Final residual = 9.1167456e-07, No Iterations 0
Time = 4.695

DILUPBiCG:  Solving for T, Initial residual = 9.1167456e-07, Final residual = 9.1167456e-07, No Iterations 0
DILUPBiCG:  Solving for T, Initial residual = 9.1167456e-07, Final residual = 9.1167456e-07, No Iterations 0
Time = 4.7

DILUPBiCG:  Solving for T, Initial residual = 9.1167456e-07, Final residual = 9.1167456e-07, No Iterations 0
DILUPBiCG:  Solving for T, Initial residual = 9.1167456e-07, Final residual = 9.1167456e-07, No Iterations 0
Time = 4.705

DILUPBiCG:  Solving for T, Initial residual = 9.1167456e-07, Final residual = 9.1167456e-07, No Iterations 0
DILUPBiCG:  Solving for T, Initial residual = 9.1167456e-07, Final residual = 9.1167456e-07, No Iterations 0
Time = 4.71

DILUPBiCG:  Solving for T, Initial residual = 9.1167456e-07, Final residual = 9.1167456e-07, No Iterations 0
DILUPBiCG:  Solving for T, Initial residual = 9.1167456e-07, Final residual = 9.1167456e-07, No Iterations 0
Time = 4.715

DILUPBiCG:  Solving for T, Initial residual = 9.1167456e-07, Final residual = 9.1167456e-07, No Iterations 0
DILUPBiCG:  Solving for T, Initial residual = 9.1167456e-07, Final residual = 9.1167456e-07, No Iterations 0
Time = 4.72

DILUPBiCG:  Solving for T, Initial residual = 9.1167456e-07, Final residual = 9.1167456e-07, No Iterations 0
DILUPBiCG:  Solving for T, Initial residual = 9.1167456e-07, Final residual = 9.1167456e-07, No Iterations 0
Time = 4.725

DILUPBiCG:  Solving for T, Initial residual = 9.1167456e-07, Final residual = 9.1167456e-07, No Iterations 0
DILUPBiCG:  Solving for T, Initial residual = 9.1167456e-07, Final residual = 9.1167456e-07, No Iterations 0
Time = 4.73

DILUPBiCG:  Solving for T, Initial residual = 9.1167456e-07, Final residual = 9.1167456e-07, No Iterations 0
DILUPBiCG:  Solving for T, Initial residual = 9.1167456e-07, Final residual = 9.1167456e-07, No Iterations 0
Time = 4.735

DILUPBiCG:  Solving for T, Initial residual = 9.1167456e-07, Final residual = 9.1167456e-07, No Iterations 0
DILUPBiCG:  Solving for T, Initial residual = 9.1167456e-07, Final residual = 9.1167456e-07, No Iterations 0
Time = 4.74

DILUPBiCG:  Solving for T, Initial residual = 9.1167456e-07, Final residual = 9.1167456e-07, No Iterations 0
DILUPBiCG:  Solving for T, Initial residual = 9.1167456e-07, Final residual = 9.1167456e-07, No Iterations 0
Time = 4.745

DILUPBiCG:  Solving for T, Initial residual = 9.1167456e-07, Final residual = 9.1167456e-07, No Iterations 0
DILUPBiCG:  Solving for T, Initial residual = 9.1167456e-07, Final residual = 9.1167456e-07, No Iterations 0
Time = 4.75

DILUPBiCG:  Solving for T, Initial residual = 9.1167456e-07, Final residual = 9.1167456e-07, No Iterations 0
DILUPBiCG:  Solving for T, Initial residual = 9.1167456e-07, Final residual = 9.1167456e-07, No Iterations 0
Time = 4.755

DILUPBiCG:  Solving for T, Initial residual = 9.1167456e-07, Final residual = 9.1167456e-07, No Iterations 0
DILUPBiCG:  Solving for T, Initial residual = 9.1167456e-07, Final residual = 9.1167456e-07, No Iterations 0
Time = 4.76

DILUPBiCG:  Solving for T, Initial residual = 9.1167456e-07, Final residual = 9.1167456e-07, No Iterations 0
DILUPBiCG:  Solving for T, Initial residual = 9.1167456e-07, Final residual = 9.1167456e-07, No Iterations 0
Time = 4.765

DILUPBiCG:  Solving for T, Initial residual = 9.1167456e-07, Final residual = 9.1167456e-07, No Iterations 0
DILUPBiCG:  Solving for T, Initial residual = 9.1167456e-07, Final residual = 9.1167456e-07, No Iterations 0
Time = 4.77

DILUPBiCG:  Solving for T, Initial residual = 9.1167456e-07, Final residual = 9.1167456e-07, No Iterations 0
DILUPBiCG:  Solving for T, Initial residual = 9.1167456e-07, Final residual = 9.1167456e-07, No Iterations 0
Time = 4.775

DILUPBiCG:  Solving for T, Initial residual = 9.1167456e-07, Final residual = 9.1167456e-07, No Iterations 0
DILUPBiCG:  Solving for T, Initial residual = 9.1167456e-07, Final residual = 9.1167456e-07, No Iterations 0
Time = 4.78

DILUPBiCG:  Solving for T, Initial residual = 9.1167456e-07, Final residual = 9.1167456e-07, No Iterations 0
DILUPBiCG:  Solving for T, Initial residual = 9.1167456e-07, Final residual = 9.1167456e-07, No Iterations 0
Time = 4.785

DILUPBiCG:  Solving for T, Initial residual = 9.1167456e-07, Final residual = 9.1167456e-07, No Iterations 0
DILUPBiCG:  Solving for T, Initial residual = 9.1167456e-07, Final residual = 9.1167456e-07, No Iterations 0
Time = 4.79

DILUPBiCG:  Solving for T, Initial residual = 9.1167456e-07, Final residual = 9.1167456e-07, No Iterations 0
DILUPBiCG:  Solving for T, Initial residual = 9.1167456e-07, Final residual = 9.1167456e-07, No Iterations 0
Time = 4.795

DILUPBiCG:  Solving for T, Initial residual = 9.1167456e-07, Final residual = 9.1167456e-07, No Iterations 0
DILUPBiCG:  Solving for T, Initial residual = 9.1167456e-07, Final residual = 9.1167456e-07, No Iterations 0
Time = 4.8

DILUPBiCG:  Solving for T, Initial residual = 9.1167456e-07, Final residual = 9.1167456e-07, No Iterations 0
DILUPBiCG:  Solving for T, Initial residual = 9.1167456e-07, Final residual = 9.1167456e-07, No Iterations 0
Time = 4.805

DILUPBiCG:  Solving for T, Initial residual = 9.1167456e-07, Final residual = 9.1167456e-07, No Iterations 0
DILUPBiCG:  Solving for T, Initial residual = 9.1167456e-07, Final residual = 9.1167456e-07, No Iterations 0
Time = 4.81

DILUPBiCG:  Solving for T, Initial residual = 9.1167456e-07, Final residual = 9.1167456e-07, No Iterations 0
DILUPBiCG:  Solving for T, Initial residual = 9.1167456e-07, Final residual = 9.1167456e-07, No Iterations 0
Time = 4.815

DILUPBiCG:  Solving for T, Initial residual = 9.1167456e-07, Final residual = 9.1167456e-07, No Iterations 0
DILUPBiCG:  Solving for T, Initial residual = 9.1167456e-07, Final residual = 9.1167456e-07, No Iterations 0
Time = 4.82

DILUPBiCG:  Solving for T, Initial residual = 9.1167456e-07, Final residual = 9.1167456e-07, No Iterations 0
DILUPBiCG:  Solving for T, Initial residual = 9.1167456e-07, Final residual = 9.1167456e-07, No Iterations 0
Time = 4.825

DILUPBiCG:  Solving for T, Initial residual = 9.1167456e-07, Final residual = 9.1167456e-07, No Iterations 0
DILUPBiCG:  Solving for T, Initial residual = 9.1167456e-07, Final residual = 9.1167456e-07, No Iterations 0
Time = 4.83

DILUPBiCG:  Solving for T, Initial residual = 9.1167456e-07, Final residual = 9.1167456e-07, No Iterations 0
DILUPBiCG:  Solving for T, Initial residual = 9.1167456e-07, Final residual = 9.1167456e-07, No Iterations 0
Time = 4.835

DILUPBiCG:  Solving for T, Initial residual = 9.1167456e-07, Final residual = 9.1167456e-07, No Iterations 0
DILUPBiCG:  Solving for T, Initial residual = 9.1167456e-07, Final residual = 9.1167456e-07, No Iterations 0
Time = 4.84

DILUPBiCG:  Solving for T, Initial residual = 9.1167456e-07, Final residual = 9.1167456e-07, No Iterations 0
DILUPBiCG:  Solving for T, Initial residual = 9.1167456e-07, Final residual = 9.1167456e-07, No Iterations 0
Time = 4.845

DILUPBiCG:  Solving for T, Initial residual = 9.1167456e-07, Final residual = 9.1167456e-07, No Iterations 0
DILUPBiCG:  Solving for T, Initial residual = 9.1167456e-07, Final residual = 9.1167456e-07, No Iterations 0
Time = 4.85

DILUPBiCG:  Solving for T, Initial residual = 9.1167456e-07, Final residual = 9.1167456e-07, No Iterations 0
DILUPBiCG:  Solving for T, Initial residual = 9.1167456e-07, Final residual = 9.1167456e-07, No Iterations 0
Time = 4.855

DILUPBiCG:  Solving for T, Initial residual = 9.1167456e-07, Final residual = 9.1167456e-07, No Iterations 0
DILUPBiCG:  Solving for T, Initial residual = 9.1167456e-07, Final residual = 9.1167456e-07, No Iterations 0
Time = 4.86

DILUPBiCG:  Solving for T, Initial residual = 9.1167456e-07, Final residual = 9.1167456e-07, No Iterations 0
DILUPBiCG:  Solving for T, Initial residual = 9.1167456e-07, Final residual = 9.1167456e-07, No Iterations 0
Time = 4.865

DILUPBiCG:  Solving for T, Initial residual = 9.1167456e-07, Final residual = 9.1167456e-07, No Iterations 0
DILUPBiCG:  Solving for T, Initial residual = 9.1167456e-07, Final residual = 9.1167456e-07, No Iterations 0
Time = 4.87

DILUPBiCG:  Solving for T, Initial residual = 9.1167456e-07, Final residual = 9.1167456e-07, No Iterations 0
DILUPBiCG:  Solving for T, Initial residual = 9.1167456e-07, Final residual = 9.1167456e-07, No Iterations 0
Time = 4.875

DILUPBiCG:  Solving for T, Initial residual = 9.1167456e-07, Final residual = 9.1167456e-07, No Iterations 0
DILUPBiCG:  Solving for T, Initial residual = 9.1167456e-07, Final residual = 9.1167456e-07, No Iterations 0
Time = 4.88

DILUPBiCG:  Solving for T, Initial residual = 9.1167456e-07, Final residual = 9.1167456e-07, No Iterations 0
DILUPBiCG:  Solving for T, Initial residual = 9.1167456e-07, Final residual = 9.1167456e-07, No Iterations 0
Time = 4.885

DILUPBiCG:  Solving for T, Initial residual = 9.1167456e-07, Final residual = 9.1167456e-07, No Iterations 0
DILUPBiCG:  Solving for T, Initial residual = 9.1167456e-07, Final residual = 9.1167456e-07, No Iterations 0
Time = 4.89

DILUPBiCG:  Solving for T, Initial residual = 9.1167456e-07, Final residual = 9.1167456e-07, No Iterations 0
DILUPBiCG:  Solving for T, Initial residual = 9.1167456e-07, Final residual = 9.1167456e-07, No Iterations 0
Time = 4.895

DILUPBiCG:  Solving for T, Initial residual = 9.1167456e-07, Final residual = 9.1167456e-07, No Iterations 0
DILUPBiCG:  Solving for T, Initial residual = 9.1167456e-07, Final residual = 9.1167456e-07, No Iterations 0
Time = 4.9

DILUPBiCG:  Solving for T, Initial residual = 9.1167456e-07, Final residual = 9.1167456e-07, No Iterations 0
DILUPBiCG:  Solving for T, Initial residual = 9.1167456e-07, Final residual = 9.1167456e-07, No Iterations 0
Time = 4.905

DILUPBiCG:  Solving for T, Initial residual = 9.1167456e-07, Final residual = 9.1167456e-07, No Iterations 0
DILUPBiCG:  Solving for T, Initial residual = 9.1167456e-07, Final residual = 9.1167456e-07, No Iterations 0
Time = 4.91

DILUPBiCG:  Solving for T, Initial residual = 9.1167456e-07, Final residual = 9.1167456e-07, No Iterations 0
DILUPBiCG:  Solving for T, Initial residual = 9.1167456e-07, Final residual = 9.1167456e-07, No Iterations 0
Time = 4.915

DILUPBiCG:  Solving for T, Initial residual = 9.1167456e-07, Final residual = 9.1167456e-07, No Iterations 0
DILUPBiCG:  Solving for T, Initial residual = 9.1167456e-07, Final residual = 9.1167456e-07, No Iterations 0
Time = 4.92

DILUPBiCG:  Solving for T, Initial residual = 9.1167456e-07, Final residual = 9.1167456e-07, No Iterations 0
DILUPBiCG:  Solving for T, Initial residual = 9.1167456e-07, Final residual = 9.1167456e-07, No Iterations 0
Time = 4.925

DILUPBiCG:  Solving for T, Initial residual = 9.1167456e-07, Final residual = 9.1167456e-07, No Iterations 0
DILUPBiCG:  Solving for T, Initial residual = 9.1167456e-07, Final residual = 9.1167456e-07, No Iterations 0
Time = 4.93

DILUPBiCG:  Solving for T, Initial residual = 9.1167456e-07, Final residual = 9.1167456e-07, No Iterations 0
DILUPBiCG:  Solving for T, Initial residual = 9.1167456e-07, Final residual = 9.1167456e-07, No Iterations 0
Time = 4.935

DILUPBiCG:  Solving for T, Initial residual = 9.1167456e-07, Final residual = 9.1167456e-07, No Iterations 0
DILUPBiCG:  Solving for T, Initial residual = 9.1167456e-07, Final residual = 9.1167456e-07, No Iterations 0
Time = 4.94

DILUPBiCG:  Solving for T, Initial residual = 9.1167456e-07, Final residual = 9.1167456e-07, No Iterations 0
DILUPBiCG:  Solving for T, Initial residual = 9.1167456e-07, Final residual = 9.1167456e-07, No Iterations 0
Time = 4.945

DILUPBiCG:  Solving for T, Initial residual = 9.1167456e-07, Final residual = 9.1167456e-07, No Iterations 0
DILUPBiCG:  Solving for T, Initial residual = 9.1167456e-07, Final residual = 9.1167456e-07, No Iterations 0
Time = 4.95

DILUPBiCG:  Solving for T, Initial residual = 9.1167456e-07, Final residual = 9.1167456e-07, No Iterations 0
DILUPBiCG:  Solving for T, Initial residual = 9.1167456e-07, Final residual = 9.1167456e-07, No Iterations 0
Time = 4.955

DILUPBiCG:  Solving for T, Initial residual = 9.1167456e-07, Final residual = 9.1167456e-07, No Iterations 0
DILUPBiCG:  Solving for T, Initial residual = 9.1167456e-07, Final residual = 9.1167456e-07, No Iterations 0
Time = 4.96

DILUPBiCG:  Solving for T, Initial residual = 9.1167456e-07, Final residual = 9.1167456e-07, No Iterations 0
DILUPBiCG:  Solving for T, Initial residual = 9.1167456e-07, Final residual = 9.1167456e-07, No Iterations 0
Time = 4.965

DILUPBiCG:  Solving for T, Initial residual = 9.1167456e-07, Final residual = 9.1167456e-07, No Iterations 0
DILUPBiCG:  Solving for T, Initial residual = 9.1167456e-07, Final residual = 9.1167456e-07, No Iterations 0
Time = 4.97

DILUPBiCG:  Solving for T, Initial residual = 9.1167456e-07, Final residual = 9.1167456e-07, No Iterations 0
DILUPBiCG:  Solving for T, Initial residual = 9.1167456e-07, Final residual = 9.1167456e-07, No Iterations 0
Time = 4.975

DILUPBiCG:  Solving for T, Initial residual = 9.1167456e-07, Final residual = 9.1167456e-07, No Iterations 0
DILUPBiCG:  Solving for T, Initial residual = 9.1167456e-07, Final residual = 9.1167456e-07, No Iterations 0
Time = 4.98

DILUPBiCG:  Solving for T, Initial residual = 9.1167456e-07, Final residual = 9.1167456e-07, No Iterations 0
DILUPBiCG:  Solving for T, Initial residual = 9.1167456e-07, Final residual = 9.1167456e-07, No Iterations 0
Time = 4.985

DILUPBiCG:  Solving for T, Initial residual = 9.1167456e-07, Final residual = 9.1167456e-07, No Iterations 0
DILUPBiCG:  Solving for T, Initial residual = 9.1167456e-07, Final residual = 9.1167456e-07, No Iterations 0
Time = 4.99

DILUPBiCG:  Solving for T, Initial residual = 9.1167456e-07, Final residual = 9.1167456e-07, No Iterations 0
DILUPBiCG:  Solving for T, Initial residual = 9.1167456e-07, Final residual = 9.1167456e-07, No Iterations 0
Time = 4.995

DILUPBiCG:  Solving for T, Initial residual = 9.1167456e-07, Final residual = 9.1167456e-07, No Iterations 0
DILUPBiCG:  Solving for T, Initial residual = 9.1167456e-07, Final residual = 9.1167456e-07, No Iterations 0
Time = 5

DILUPBiCG:  Solving for T, Initial residual = 9.1167456e-07, Final residual = 9.1167456e-07, No Iterations 0
DILUPBiCG:  Solving for T, Initial residual = 9.1167456e-07, Final residual = 9.1167456e-07, No Iterations 0
End

