/*---------------------------------------------------------------------------*\
  =========                 |
  \\      /  F ield         | OpenFOAM: The Open Source CFD Toolbox
   \\    /   O peration     | Website:  https://openfoam.org
    \\  /    A nd           | Version:  9
     \\/     M anipulation  |
\*---------------------------------------------------------------------------*/
Build  : 9-710dba47639b
Exec   : scalarTransportFoam
Date   : May 10 2024
Time   : 14:41:05
Host   : "dyfluid-virtual-machine"
PID    : 963423
I/O    : uncollated
Case   : /home/dyfluid/case/one-muti
nProcs : 1
sigFpe : Enabling floating point exception trapping (FOAM_SIGFPE).
fileModificationChecking : Monitoring run-time modified files using timeStampMaster (fileModificationSkew 10)
allowSystemOperations : Allowing user-supplied system call operations

// * * * * * * * * * * * * * * * * * * * * * * * * * * * * * * * * * * * * * //
Create time

Create mesh for time = 0


SIMPLE: No convergence criteria found

Reading field T

Reading field U

Reading transportProperties

Reading diffusivity DT

Reading/calculating face flux field phi

No fvModels present
No fvConstraints present

Calculating scalar transport

Courant Number mean: 0.6 max: 0.6
Time = 0.005

DILUPBiCG:  Solving for T, Initial residual = 1, Final residual = 1.6437866e-07, No Iterations 4
DILUPBiCG:  Solving for T, Initial residual = 0.085702682, Final residual = 6.3209707e-07, No Iterations 3
Time = 0.01

DILUPBiCG:  Solving for T, Initial residual = 0.20459378, Final residual = 7.0073668e-07, No Iterations 3
DILUPBiCG:  Solving for T, Initial residual = 0.0081026996, Final residual = 1.0684199e-07, No Iterations 3
Time = 0.015

DILUPBiCG:  Solving for T, Initial residual = 0.11518445, Final residual = 4.5607484e-07, No Iterations 3
DILUPBiCG:  Solving for T, Initial residual = 0.017587563, Final residual = 1.4684789e-07, No Iterations 3
Time = 0.02

DILUPBiCG:  Solving for T, Initial residual = 0.080071275, Final residual = 9.0132826e-09, No Iterations 4
DILUPBiCG:  Solving for T, Initial residual = 0.01859144, Final residual = 1.056833e-07, No Iterations 3
Time = 0.025

DILUPBiCG:  Solving for T, Initial residual = 0.061475945, Final residual = 6.4405967e-07, No Iterations 3
DILUPBiCG:  Solving for T, Initial residual = 0.015544295, Final residual = 9.1033381e-08, No Iterations 3
Time = 0.03

DILUPBiCG:  Solving for T, Initial residual = 0.04998891, Final residual = 8.2214947e-07, No Iterations 3
DILUPBiCG:  Solving for T, Initial residual = 0.0092042882, Final residual = 1.9395278e-09, No Iterations 4
Time = 0.035

DILUPBiCG:  Solving for T, Initial residual = 0.042161879, Final residual = 4.281775e-07, No Iterations 3
DILUPBiCG:  Solving for T, Initial residual = 0.0065064589, Final residual = 1.8295071e-07, No Iterations 3
Time = 0.04

DILUPBiCG:  Solving for T, Initial residual = 0.03650634, Final residual = 3.5092563e-07, No Iterations 3
DILUPBiCG:  Solving for T, Initial residual = 0.0047857855, Final residual = 2.6431848e-07, No Iterations 3
Time = 0.045

DILUPBiCG:  Solving for T, Initial residual = 0.032340249, Final residual = 2.7370247e-07, No Iterations 3
DILUPBiCG:  Solving for T, Initial residual = 0.0035776332, Final residual = 3.809232e-08, No Iterations 3
Time = 0.05

DILUPBiCG:  Solving for T, Initial residual = 0.029017426, Final residual = 3.9042925e-07, No Iterations 3
DILUPBiCG:  Solving for T, Initial residual = 0.0026799072, Final residual = 3.7380623e-08, No Iterations 3
Time = 0.055

DILUPBiCG:  Solving for T, Initial residual = 0.02630398, Final residual = 4.8204121e-07, No Iterations 3
DILUPBiCG:  Solving for T, Initial residual = 0.0020364234, Final residual = 2.8491076e-08, No Iterations 3
Time = 0.06

DILUPBiCG:  Solving for T, Initial residual = 0.024092333, Final residual = 3.7330414e-07, No Iterations 3
DILUPBiCG:  Solving for T, Initial residual = 0.0023476464, Final residual = 1.302287e-07, No Iterations 3
Time = 0.065

DILUPBiCG:  Solving for T, Initial residual = 0.022247073, Final residual = 3.4159159e-07, No Iterations 3
DILUPBiCG:  Solving for T, Initial residual = 0.0027866915, Final residual = 4.3561743e-08, No Iterations 3
Time = 0.07

DILUPBiCG:  Solving for T, Initial residual = 0.020644636, Final residual = 3.6403272e-07, No Iterations 3
DILUPBiCG:  Solving for T, Initial residual = 0.0023849227, Final residual = 9.9399061e-08, No Iterations 3
Time = 0.075

DILUPBiCG:  Solving for T, Initial residual = 0.019272397, Final residual = 5.5005608e-07, No Iterations 3
DILUPBiCG:  Solving for T, Initial residual = 0.0015635062, Final residual = 2.5895894e-08, No Iterations 3
Time = 0.08

DILUPBiCG:  Solving for T, Initial residual = 0.018079616, Final residual = 3.8736919e-07, No Iterations 3
DILUPBiCG:  Solving for T, Initial residual = 0.0012856966, Final residual = 3.2326316e-08, No Iterations 3
Time = 0.085

DILUPBiCG:  Solving for T, Initial residual = 0.017019504, Final residual = 4.3035447e-07, No Iterations 3
DILUPBiCG:  Solving for T, Initial residual = 0.0010206218, Final residual = 2.0152756e-08, No Iterations 3
Time = 0.09

DILUPBiCG:  Solving for T, Initial residual = 0.016086896, Final residual = 3.0121648e-07, No Iterations 3
DILUPBiCG:  Solving for T, Initial residual = 0.00092370105, Final residual = 2.1800267e-08, No Iterations 3
Time = 0.095

DILUPBiCG:  Solving for T, Initial residual = 0.015273444, Final residual = 3.0892813e-07, No Iterations 3
DILUPBiCG:  Solving for T, Initial residual = 0.0008344859, Final residual = 2.2025108e-08, No Iterations 3
Time = 0.1

DILUPBiCG:  Solving for T, Initial residual = 0.014540795, Final residual = 3.0859141e-07, No Iterations 3
DILUPBiCG:  Solving for T, Initial residual = 0.00076658933, Final residual = 1.4391563e-08, No Iterations 3
Time = 0.105

DILUPBiCG:  Solving for T, Initial residual = 0.013882365, Final residual = 3.6668865e-07, No Iterations 3
DILUPBiCG:  Solving for T, Initial residual = 0.00072542181, Final residual = 7.7041365e-07, No Iterations 2
Time = 0.11

DILUPBiCG:  Solving for T, Initial residual = 0.013300013, Final residual = 3.4985022e-07, No Iterations 3
DILUPBiCG:  Solving for T, Initial residual = 0.00066124068, Final residual = 6.1661444e-07, No Iterations 2
Time = 0.115

DILUPBiCG:  Solving for T, Initial residual = 0.012743016, Final residual = 3.8078588e-07, No Iterations 3
DILUPBiCG:  Solving for T, Initial residual = 0.00061289192, Final residual = 5.3464242e-07, No Iterations 2
Time = 0.12

DILUPBiCG:  Solving for T, Initial residual = 0.012229806, Final residual = 8.2064813e-07, No Iterations 3
DILUPBiCG:  Solving for T, Initial residual = 0.0005852851, Final residual = 4.9616595e-07, No Iterations 2
Time = 0.125

DILUPBiCG:  Solving for T, Initial residual = 0.011770512, Final residual = 3.5095947e-07, No Iterations 3
DILUPBiCG:  Solving for T, Initial residual = 0.00058644264, Final residual = 4.7612942e-07, No Iterations 2
Time = 0.13

DILUPBiCG:  Solving for T, Initial residual = 0.011347091, Final residual = 3.743376e-09, No Iterations 4
DILUPBiCG:  Solving for T, Initial residual = 0.00057725939, Final residual = 4.700239e-07, No Iterations 2
Time = 0.135

DILUPBiCG:  Solving for T, Initial residual = 0.01094575, Final residual = 9.7440759e-07, No Iterations 3
DILUPBiCG:  Solving for T, Initial residual = 0.00057846019, Final residual = 5.8767219e-07, No Iterations 2
Time = 0.14

DILUPBiCG:  Solving for T, Initial residual = 0.010573266, Final residual = 3.63595e-09, No Iterations 4
DILUPBiCG:  Solving for T, Initial residual = 0.00058032214, Final residual = 5.326438e-07, No Iterations 2
Time = 0.145

DILUPBiCG:  Solving for T, Initial residual = 0.010234667, Final residual = 3.3364124e-09, No Iterations 4
DILUPBiCG:  Solving for T, Initial residual = 0.00053776732, Final residual = 4.037745e-07, No Iterations 2
Time = 0.15

DILUPBiCG:  Solving for T, Initial residual = 0.0099140191, Final residual = 5.5675952e-07, No Iterations 3
DILUPBiCG:  Solving for T, Initial residual = 0.00049506666, Final residual = 4.4716405e-07, No Iterations 2
Time = 0.155

DILUPBiCG:  Solving for T, Initial residual = 0.0096087457, Final residual = 2.1220939e-07, No Iterations 3
DILUPBiCG:  Solving for T, Initial residual = 0.00047626257, Final residual = 3.8841166e-07, No Iterations 2
Time = 0.16

DILUPBiCG:  Solving for T, Initial residual = 0.0093324761, Final residual = 2.8802285e-09, No Iterations 4
DILUPBiCG:  Solving for T, Initial residual = 0.00045589212, Final residual = 3.1350582e-07, No Iterations 2
Time = 0.165

DILUPBiCG:  Solving for T, Initial residual = 0.0090695082, Final residual = 9.4473372e-07, No Iterations 3
DILUPBiCG:  Solving for T, Initial residual = 0.00043895202, Final residual = 3.569504e-07, No Iterations 2
Time = 0.17

DILUPBiCG:  Solving for T, Initial residual = 0.0088176439, Final residual = 2.5806246e-07, No Iterations 3
DILUPBiCG:  Solving for T, Initial residual = 0.00042685541, Final residual = 3.157355e-07, No Iterations 2
Time = 0.175

DILUPBiCG:  Solving for T, Initial residual = 0.0085874001, Final residual = 2.6411852e-09, No Iterations 4
DILUPBiCG:  Solving for T, Initial residual = 0.00042183876, Final residual = 3.3502334e-07, No Iterations 2
Time = 0.18

DILUPBiCG:  Solving for T, Initial residual = 0.0083778044, Final residual = 3.040264e-09, No Iterations 4
DILUPBiCG:  Solving for T, Initial residual = 0.00042260522, Final residual = 3.4191305e-07, No Iterations 2
Time = 0.185

DILUPBiCG:  Solving for T, Initial residual = 0.008182197, Final residual = 3.0308423e-09, No Iterations 4
DILUPBiCG:  Solving for T, Initial residual = 0.00043071393, Final residual = 4.1343354e-07, No Iterations 2
Time = 0.19

DILUPBiCG:  Solving for T, Initial residual = 0.0079928007, Final residual = 3.5062672e-07, No Iterations 3
DILUPBiCG:  Solving for T, Initial residual = 0.00043731292, Final residual = 3.9387897e-07, No Iterations 2
Time = 0.195

DILUPBiCG:  Solving for T, Initial residual = 0.0078166005, Final residual = 2.5711739e-09, No Iterations 4
DILUPBiCG:  Solving for T, Initial residual = 0.00043690207, Final residual = 2.7454929e-07, No Iterations 2
Time = 0.2

DILUPBiCG:  Solving for T, Initial residual = 0.0076423249, Final residual = 4.3788806e-07, No Iterations 3
DILUPBiCG:  Solving for T, Initial residual = 0.00043373322, Final residual = 2.7301988e-07, No Iterations 2
Time = 0.205

DILUPBiCG:  Solving for T, Initial residual = 0.007469538, Final residual = 2.9130369e-09, No Iterations 4
DILUPBiCG:  Solving for T, Initial residual = 0.00043021806, Final residual = 3.7918426e-08, No Iterations 3
Time = 0.21

DILUPBiCG:  Solving for T, Initial residual = 0.0073087939, Final residual = 2.9101968e-09, No Iterations 4
DILUPBiCG:  Solving for T, Initial residual = 0.00042658354, Final residual = 7.0148555e-07, No Iterations 2
Time = 0.215

DILUPBiCG:  Solving for T, Initial residual = 0.0071570775, Final residual = 3.0742676e-09, No Iterations 4
DILUPBiCG:  Solving for T, Initial residual = 0.00042498158, Final residual = 2.3636152e-08, No Iterations 3
Time = 0.22

DILUPBiCG:  Solving for T, Initial residual = 0.0070071508, Final residual = 8.4110788e-07, No Iterations 3
DILUPBiCG:  Solving for T, Initial residual = 0.00041901466, Final residual = 2.6759849e-07, No Iterations 2
Time = 0.225

DILUPBiCG:  Solving for T, Initial residual = 0.0068650468, Final residual = 8.5713885e-07, No Iterations 3
DILUPBiCG:  Solving for T, Initial residual = 0.00041305245, Final residual = 3.0616344e-07, No Iterations 2
Time = 0.23

DILUPBiCG:  Solving for T, Initial residual = 0.0067333718, Final residual = 2.3278976e-09, No Iterations 4
DILUPBiCG:  Solving for T, Initial residual = 0.00040842803, Final residual = 7.8123515e-07, No Iterations 2
Time = 0.235

DILUPBiCG:  Solving for T, Initial residual = 0.0066024917, Final residual = 3.3970001e-07, No Iterations 3
DILUPBiCG:  Solving for T, Initial residual = 0.00040279928, Final residual = 2.1667026e-07, No Iterations 2
Time = 0.24

DILUPBiCG:  Solving for T, Initial residual = 0.0064733468, Final residual = 2.5687438e-09, No Iterations 4
DILUPBiCG:  Solving for T, Initial residual = 0.000397819, Final residual = 8.431451e-07, No Iterations 2
Time = 0.245

DILUPBiCG:  Solving for T, Initial residual = 0.0063528003, Final residual = 3.7986343e-07, No Iterations 3
DILUPBiCG:  Solving for T, Initial residual = 0.0003932753, Final residual = 2.1314521e-07, No Iterations 2
Time = 0.25

DILUPBiCG:  Solving for T, Initial residual = 0.0062376068, Final residual = 1.4024636e-07, No Iterations 3
DILUPBiCG:  Solving for T, Initial residual = 0.00038919277, Final residual = 7.1616107e-07, No Iterations 2
Time = 0.255

DILUPBiCG:  Solving for T, Initial residual = 0.0061241836, Final residual = 3.0829768e-09, No Iterations 4
DILUPBiCG:  Solving for T, Initial residual = 0.00038563787, Final residual = 5.1524871e-07, No Iterations 2
Time = 0.26

DILUPBiCG:  Solving for T, Initial residual = 0.0060149882, Final residual = 2.2023756e-07, No Iterations 3
DILUPBiCG:  Solving for T, Initial residual = 0.00038222277, Final residual = 4.6447942e-07, No Iterations 2
Time = 0.265

DILUPBiCG:  Solving for T, Initial residual = 0.0059141184, Final residual = 1.2885626e-07, No Iterations 3
DILUPBiCG:  Solving for T, Initial residual = 0.00037993999, Final residual = 5.153231e-07, No Iterations 2
Time = 0.27

DILUPBiCG:  Solving for T, Initial residual = 0.0058147819, Final residual = 2.0148505e-07, No Iterations 3
DILUPBiCG:  Solving for T, Initial residual = 0.00037797703, Final residual = 5.390659e-07, No Iterations 2
Time = 0.275

DILUPBiCG:  Solving for T, Initial residual = 0.0057165485, Final residual = 1.2007992e-07, No Iterations 3
DILUPBiCG:  Solving for T, Initial residual = 0.00037639197, Final residual = 4.9256888e-07, No Iterations 2
Time = 0.28

DILUPBiCG:  Solving for T, Initial residual = 0.0056238957, Final residual = 3.6841568e-07, No Iterations 3
DILUPBiCG:  Solving for T, Initial residual = 0.00037441901, Final residual = 9.8908236e-07, No Iterations 2
Time = 0.285

DILUPBiCG:  Solving for T, Initial residual = 0.0055344845, Final residual = 1.9383537e-07, No Iterations 3
DILUPBiCG:  Solving for T, Initial residual = 0.00037296416, Final residual = 5.4232859e-07, No Iterations 2
Time = 0.29

DILUPBiCG:  Solving for T, Initial residual = 0.005445963, Final residual = 1.4693629e-07, No Iterations 3
DILUPBiCG:  Solving for T, Initial residual = 0.00037129004, Final residual = 4.9197879e-07, No Iterations 2
Time = 0.295

DILUPBiCG:  Solving for T, Initial residual = 0.0053604765, Final residual = 1.2092311e-07, No Iterations 3
DILUPBiCG:  Solving for T, Initial residual = 0.00036907763, Final residual = 5.9105253e-07, No Iterations 2
Time = 0.3

DILUPBiCG:  Solving for T, Initial residual = 0.0052823151, Final residual = 1.5218155e-07, No Iterations 3
DILUPBiCG:  Solving for T, Initial residual = 0.00036907439, Final residual = 6.074225e-07, No Iterations 2
Time = 0.305

DILUPBiCG:  Solving for T, Initial residual = 0.005205367, Final residual = 1.1943616e-07, No Iterations 3
DILUPBiCG:  Solving for T, Initial residual = 0.00037084331, Final residual = 5.7334012e-07, No Iterations 2
Time = 0.31

DILUPBiCG:  Solving for T, Initial residual = 0.0051293782, Final residual = 1.1145555e-07, No Iterations 3
DILUPBiCG:  Solving for T, Initial residual = 0.0003736944, Final residual = 5.4431394e-07, No Iterations 2
Time = 0.315

DILUPBiCG:  Solving for T, Initial residual = 0.005059132, Final residual = 1.0010473e-07, No Iterations 3
DILUPBiCG:  Solving for T, Initial residual = 0.00037554394, Final residual = 5.6808037e-07, No Iterations 2
Time = 0.32

DILUPBiCG:  Solving for T, Initial residual = 0.0049900276, Final residual = 1.4639369e-07, No Iterations 3
DILUPBiCG:  Solving for T, Initial residual = 0.00037738381, Final residual = 5.2695094e-07, No Iterations 2
Time = 0.325

DILUPBiCG:  Solving for T, Initial residual = 0.0049200051, Final residual = 2.0949005e-07, No Iterations 3
DILUPBiCG:  Solving for T, Initial residual = 0.00037874699, Final residual = 5.0945302e-07, No Iterations 2
Time = 0.33

DILUPBiCG:  Solving for T, Initial residual = 0.0048526976, Final residual = 1.8968446e-07, No Iterations 3
DILUPBiCG:  Solving for T, Initial residual = 0.00037958073, Final residual = 4.6963629e-07, No Iterations 2
Time = 0.335

DILUPBiCG:  Solving for T, Initial residual = 0.0047885471, Final residual = 3.089815e-07, No Iterations 3
DILUPBiCG:  Solving for T, Initial residual = 0.00038047747, Final residual = 4.92054e-07, No Iterations 2
Time = 0.34

DILUPBiCG:  Solving for T, Initial residual = 0.0047251132, Final residual = 9.8985301e-08, No Iterations 3
DILUPBiCG:  Solving for T, Initial residual = 0.00038063558, Final residual = 4.3547638e-07, No Iterations 2
Time = 0.345

DILUPBiCG:  Solving for T, Initial residual = 0.0046616429, Final residual = 1.4701863e-07, No Iterations 3
DILUPBiCG:  Solving for T, Initial residual = 0.00038102965, Final residual = 4.0869876e-07, No Iterations 2
Time = 0.35

DILUPBiCG:  Solving for T, Initial residual = 0.0046011111, Final residual = 1.0014837e-07, No Iterations 3
DILUPBiCG:  Solving for T, Initial residual = 0.00038193562, Final residual = 4.1582044e-07, No Iterations 2
Time = 0.355

DILUPBiCG:  Solving for T, Initial residual = 0.0045430524, Final residual = 1.0499471e-07, No Iterations 3
DILUPBiCG:  Solving for T, Initial residual = 0.00038313401, Final residual = 4.0065924e-07, No Iterations 2
Time = 0.36

DILUPBiCG:  Solving for T, Initial residual = 0.0044853635, Final residual = 1.1796085e-07, No Iterations 3
DILUPBiCG:  Solving for T, Initial residual = 0.0003844147, Final residual = 4.0342449e-07, No Iterations 2
Time = 0.365

DILUPBiCG:  Solving for T, Initial residual = 0.0044289664, Final residual = 8.1746959e-08, No Iterations 3
DILUPBiCG:  Solving for T, Initial residual = 0.00038656422, Final residual = 4.049847e-07, No Iterations 2
Time = 0.37

DILUPBiCG:  Solving for T, Initial residual = 0.0043760451, Final residual = 9.7424347e-08, No Iterations 3
DILUPBiCG:  Solving for T, Initial residual = 0.0003893547, Final residual = 4.0169754e-07, No Iterations 2
Time = 0.375

DILUPBiCG:  Solving for T, Initial residual = 0.0043234241, Final residual = 1.6369274e-07, No Iterations 3
DILUPBiCG:  Solving for T, Initial residual = 0.00039189505, Final residual = 4.0662942e-07, No Iterations 2
Time = 0.38

DILUPBiCG:  Solving for T, Initial residual = 0.0042728975, Final residual = 6.7605259e-08, No Iterations 3
DILUPBiCG:  Solving for T, Initial residual = 0.00039674671, Final residual = 4.3555511e-07, No Iterations 2
Time = 0.385

DILUPBiCG:  Solving for T, Initial residual = 0.0042265519, Final residual = 9.1029843e-08, No Iterations 3
DILUPBiCG:  Solving for T, Initial residual = 0.00040304368, Final residual = 4.1875694e-07, No Iterations 2
Time = 0.39

DILUPBiCG:  Solving for T, Initial residual = 0.0041822432, Final residual = 1.0451504e-07, No Iterations 3
DILUPBiCG:  Solving for T, Initial residual = 0.00040954788, Final residual = 4.0446586e-07, No Iterations 2
Time = 0.395

DILUPBiCG:  Solving for T, Initial residual = 0.0041367998, Final residual = 4.8487372e-08, No Iterations 3
DILUPBiCG:  Solving for T, Initial residual = 0.00041421489, Final residual = 3.8936796e-07, No Iterations 2
Time = 0.4

DILUPBiCG:  Solving for T, Initial residual = 0.004092348, Final residual = 6.0994186e-08, No Iterations 3
DILUPBiCG:  Solving for T, Initial residual = 0.00041882203, Final residual = 3.8922003e-07, No Iterations 2
Time = 0.405

DILUPBiCG:  Solving for T, Initial residual = 0.0040497196, Final residual = 6.5173704e-08, No Iterations 3
DILUPBiCG:  Solving for T, Initial residual = 0.00042353592, Final residual = 3.8090473e-07, No Iterations 2
Time = 0.41

DILUPBiCG:  Solving for T, Initial residual = 0.0040066869, Final residual = 6.5070561e-08, No Iterations 3
DILUPBiCG:  Solving for T, Initial residual = 0.00042789649, Final residual = 3.7075524e-07, No Iterations 2
Time = 0.415

DILUPBiCG:  Solving for T, Initial residual = 0.0039643049, Final residual = 7.9914927e-08, No Iterations 3
DILUPBiCG:  Solving for T, Initial residual = 0.00043279585, Final residual = 3.7060393e-07, No Iterations 2
Time = 0.42

DILUPBiCG:  Solving for T, Initial residual = 0.0039235809, Final residual = 1.1079586e-07, No Iterations 3
DILUPBiCG:  Solving for T, Initial residual = 0.0004377407, Final residual = 3.6509199e-07, No Iterations 2
Time = 0.425

DILUPBiCG:  Solving for T, Initial residual = 0.0038843613, Final residual = 8.198633e-08, No Iterations 3
DILUPBiCG:  Solving for T, Initial residual = 0.00044297519, Final residual = 3.6519028e-07, No Iterations 2
Time = 0.43

DILUPBiCG:  Solving for T, Initial residual = 0.0038459233, Final residual = 1.1939121e-07, No Iterations 3
DILUPBiCG:  Solving for T, Initial residual = 0.00044968482, Final residual = 3.6194328e-07, No Iterations 2
Time = 0.435

DILUPBiCG:  Solving for T, Initial residual = 0.0038090751, Final residual = 2.9811101e-07, No Iterations 3
DILUPBiCG:  Solving for T, Initial residual = 0.00045696354, Final residual = 3.6553291e-07, No Iterations 2
Time = 0.44

DILUPBiCG:  Solving for T, Initial residual = 0.0037747133, Final residual = 1.1574434e-07, No Iterations 3
DILUPBiCG:  Solving for T, Initial residual = 0.00046775865, Final residual = 3.6477319e-07, No Iterations 2
Time = 0.445

DILUPBiCG:  Solving for T, Initial residual = 0.0037450748, Final residual = 5.6050499e-08, No Iterations 3
DILUPBiCG:  Solving for T, Initial residual = 0.00048229193, Final residual = 3.5984371e-07, No Iterations 2
Time = 0.45

DILUPBiCG:  Solving for T, Initial residual = 0.0037165522, Final residual = 5.2924998e-08, No Iterations 3
DILUPBiCG:  Solving for T, Initial residual = 0.00049546775, Final residual = 3.5835601e-07, No Iterations 2
Time = 0.455

DILUPBiCG:  Solving for T, Initial residual = 0.003689454, Final residual = 6.3112717e-08, No Iterations 3
DILUPBiCG:  Solving for T, Initial residual = 0.00050999451, Final residual = 3.556498e-07, No Iterations 2
Time = 0.46

DILUPBiCG:  Solving for T, Initial residual = 0.003665389, Final residual = 1.1471427e-07, No Iterations 3
DILUPBiCG:  Solving for T, Initial residual = 0.00052523648, Final residual = 3.7200198e-07, No Iterations 2
Time = 0.465

DILUPBiCG:  Solving for T, Initial residual = 0.0036406868, Final residual = 1.4318113e-07, No Iterations 3
DILUPBiCG:  Solving for T, Initial residual = 0.00054288253, Final residual = 3.4828455e-07, No Iterations 2
Time = 0.47

DILUPBiCG:  Solving for T, Initial residual = 0.0036172545, Final residual = 1.07051e-07, No Iterations 3
DILUPBiCG:  Solving for T, Initial residual = 0.00056015236, Final residual = 3.4067107e-07, No Iterations 2
Time = 0.475

DILUPBiCG:  Solving for T, Initial residual = 0.0035979964, Final residual = 8.9256284e-08, No Iterations 3
DILUPBiCG:  Solving for T, Initial residual = 0.00057917335, Final residual = 3.4401525e-07, No Iterations 2
Time = 0.48

DILUPBiCG:  Solving for T, Initial residual = 0.0035800696, Final residual = 7.2112379e-08, No Iterations 3
DILUPBiCG:  Solving for T, Initial residual = 0.0005999556, Final residual = 3.4744246e-07, No Iterations 2
Time = 0.485

DILUPBiCG:  Solving for T, Initial residual = 0.0035652851, Final residual = 1.3591203e-07, No Iterations 3
DILUPBiCG:  Solving for T, Initial residual = 0.00063077497, Final residual = 3.2618117e-07, No Iterations 2
Time = 0.49

DILUPBiCG:  Solving for T, Initial residual = 0.003561657, Final residual = 8.5232571e-08, No Iterations 3
DILUPBiCG:  Solving for T, Initial residual = 0.00067025115, Final residual = 3.1938249e-07, No Iterations 2
Time = 0.495

DILUPBiCG:  Solving for T, Initial residual = 0.0035634037, Final residual = 8.6621305e-08, No Iterations 3
DILUPBiCG:  Solving for T, Initial residual = 0.00070868961, Final residual = 3.4343186e-07, No Iterations 2
Time = 0.5

DILUPBiCG:  Solving for T, Initial residual = 0.0035636868, Final residual = 1.0099854e-07, No Iterations 3
DILUPBiCG:  Solving for T, Initial residual = 0.00074164345, Final residual = 3.6379466e-07, No Iterations 2
Time = 0.505

DILUPBiCG:  Solving for T, Initial residual = 0.0035615566, Final residual = 7.9226845e-08, No Iterations 3
DILUPBiCG:  Solving for T, Initial residual = 0.00077649941, Final residual = 3.7562821e-07, No Iterations 2
Time = 0.51

DILUPBiCG:  Solving for T, Initial residual = 0.0035647282, Final residual = 1.4776029e-07, No Iterations 3
DILUPBiCG:  Solving for T, Initial residual = 0.00082110635, Final residual = 3.7128091e-07, No Iterations 2
Time = 0.515

DILUPBiCG:  Solving for T, Initial residual = 0.0035787228, Final residual = 1.1508659e-07, No Iterations 3
DILUPBiCG:  Solving for T, Initial residual = 0.00087371244, Final residual = 4.0037209e-07, No Iterations 2
Time = 0.52

DILUPBiCG:  Solving for T, Initial residual = 0.0036082663, Final residual = 2.5035197e-07, No Iterations 3
DILUPBiCG:  Solving for T, Initial residual = 0.00094271254, Final residual = 4.2218944e-07, No Iterations 2
Time = 0.525

DILUPBiCG:  Solving for T, Initial residual = 0.0036446054, Final residual = 2.2430951e-07, No Iterations 3
DILUPBiCG:  Solving for T, Initial residual = 0.00102174, Final residual = 3.5169983e-07, No Iterations 2
Time = 0.53

DILUPBiCG:  Solving for T, Initial residual = 0.0036866605, Final residual = 2.5748924e-07, No Iterations 3
DILUPBiCG:  Solving for T, Initial residual = 0.0011023543, Final residual = 3.0519366e-07, No Iterations 2
Time = 0.535

DILUPBiCG:  Solving for T, Initial residual = 0.0037412769, Final residual = 3.3256628e-07, No Iterations 3
DILUPBiCG:  Solving for T, Initial residual = 0.0011910744, Final residual = 2.6020786e-07, No Iterations 2
Time = 0.54

DILUPBiCG:  Solving for T, Initial residual = 0.0038060843, Final residual = 7.1362917e-08, No Iterations 3
DILUPBiCG:  Solving for T, Initial residual = 0.0012848037, Final residual = 2.2238955e-07, No Iterations 2
Time = 0.545

DILUPBiCG:  Solving for T, Initial residual = 0.003889579, Final residual = 1.1267872e-07, No Iterations 3
DILUPBiCG:  Solving for T, Initial residual = 0.0013903938, Final residual = 2.0523032e-07, No Iterations 2
Time = 0.55

DILUPBiCG:  Solving for T, Initial residual = 0.0039925813, Final residual = 9.6742405e-08, No Iterations 3
DILUPBiCG:  Solving for T, Initial residual = 0.0015241111, Final residual = 2.5493428e-07, No Iterations 2
Time = 0.555

DILUPBiCG:  Solving for T, Initial residual = 0.004108539, Final residual = 1.100498e-07, No Iterations 3
DILUPBiCG:  Solving for T, Initial residual = 0.0016426686, Final residual = 2.5721844e-07, No Iterations 2
Time = 0.56

DILUPBiCG:  Solving for T, Initial residual = 0.0042113081, Final residual = 2.9553891e-07, No Iterations 3
DILUPBiCG:  Solving for T, Initial residual = 0.0017534161, Final residual = 3.1411203e-07, No Iterations 2
Time = 0.565

DILUPBiCG:  Solving for T, Initial residual = 0.0042947234, Final residual = 4.4442903e-09, No Iterations 4
DILUPBiCG:  Solving for T, Initial residual = 0.0017738925, Final residual = 2.7496289e-07, No Iterations 2
Time = 0.57

DILUPBiCG:  Solving for T, Initial residual = 0.0043174386, Final residual = 4.4981579e-07, No Iterations 3
DILUPBiCG:  Solving for T, Initial residual = 0.0018814572, Final residual = 2.9513192e-07, No Iterations 2
Time = 0.575

DILUPBiCG:  Solving for T, Initial residual = 0.0043757935, Final residual = 5.1782838e-09, No Iterations 4
DILUPBiCG:  Solving for T, Initial residual = 0.0018822511, Final residual = 3.026675e-07, No Iterations 2
Time = 0.58

DILUPBiCG:  Solving for T, Initial residual = 0.0043916767, Final residual = 2.3515349e-07, No Iterations 3
DILUPBiCG:  Solving for T, Initial residual = 0.0019515634, Final residual = 2.8583981e-07, No Iterations 2
Time = 0.585

DILUPBiCG:  Solving for T, Initial residual = 0.0044470506, Final residual = 3.2081814e-07, No Iterations 3
DILUPBiCG:  Solving for T, Initial residual = 0.0020392196, Final residual = 3.0752267e-07, No Iterations 2
Time = 0.59

DILUPBiCG:  Solving for T, Initial residual = 0.0044820771, Final residual = 3.7883633e-07, No Iterations 3
DILUPBiCG:  Solving for T, Initial residual = 0.0020361463, Final residual = 3.1859567e-07, No Iterations 2
Time = 0.595

DILUPBiCG:  Solving for T, Initial residual = 0.0044869157, Final residual = 2.9133105e-07, No Iterations 3
DILUPBiCG:  Solving for T, Initial residual = 0.0020836233, Final residual = 3.0394521e-07, No Iterations 2
Time = 0.6

DILUPBiCG:  Solving for T, Initial residual = 0.0045085499, Final residual = 4.2315567e-07, No Iterations 3
DILUPBiCG:  Solving for T, Initial residual = 0.0021781477, Final residual = 3.36797e-07, No Iterations 2
Time = 0.605

DILUPBiCG:  Solving for T, Initial residual = 0.0045426378, Final residual = 3.0664703e-07, No Iterations 3
DILUPBiCG:  Solving for T, Initial residual = 0.0021191828, Final residual = 3.218441e-07, No Iterations 2
Time = 0.61

DILUPBiCG:  Solving for T, Initial residual = 0.0045333959, Final residual = 3.5711271e-07, No Iterations 3
DILUPBiCG:  Solving for T, Initial residual = 0.0022710555, Final residual = 3.3680611e-07, No Iterations 2
Time = 0.615

DILUPBiCG:  Solving for T, Initial residual = 0.0045892428, Final residual = 6.3512955e-07, No Iterations 3
DILUPBiCG:  Solving for T, Initial residual = 0.0022550262, Final residual = 3.4433531e-07, No Iterations 2
Time = 0.62

DILUPBiCG:  Solving for T, Initial residual = 0.0045957135, Final residual = 2.4223902e-07, No Iterations 3
DILUPBiCG:  Solving for T, Initial residual = 0.0023196072, Final residual = 3.218083e-07, No Iterations 2
Time = 0.625

DILUPBiCG:  Solving for T, Initial residual = 0.0046280698, Final residual = 4.2461704e-07, No Iterations 3
DILUPBiCG:  Solving for T, Initial residual = 0.0023754737, Final residual = 3.7815494e-07, No Iterations 2
Time = 0.63

DILUPBiCG:  Solving for T, Initial residual = 0.0046374987, Final residual = 3.2301161e-07, No Iterations 3
DILUPBiCG:  Solving for T, Initial residual = 0.0024073592, Final residual = 3.7403757e-07, No Iterations 2
Time = 0.635

DILUPBiCG:  Solving for T, Initial residual = 0.004663106, Final residual = 2.8677261e-07, No Iterations 3
DILUPBiCG:  Solving for T, Initial residual = 0.0024590263, Final residual = 3.5238523e-07, No Iterations 2
Time = 0.64

DILUPBiCG:  Solving for T, Initial residual = 0.0046885134, Final residual = 2.8710497e-07, No Iterations 3
DILUPBiCG:  Solving for T, Initial residual = 0.0025263903, Final residual = 3.779076e-07, No Iterations 2
Time = 0.645

DILUPBiCG:  Solving for T, Initial residual = 0.004752128, Final residual = 3.2554498e-07, No Iterations 3
DILUPBiCG:  Solving for T, Initial residual = 0.002580696, Final residual = 3.8895309e-07, No Iterations 2
Time = 0.65

DILUPBiCG:  Solving for T, Initial residual = 0.0047645488, Final residual = 3.0856665e-07, No Iterations 3
DILUPBiCG:  Solving for T, Initial residual = 0.0026377031, Final residual = 4.5603723e-07, No Iterations 2
Time = 0.655

DILUPBiCG:  Solving for T, Initial residual = 0.0047916076, Final residual = 2.8954725e-07, No Iterations 3
DILUPBiCG:  Solving for T, Initial residual = 0.0026906882, Final residual = 4.0244072e-07, No Iterations 2
Time = 0.66

DILUPBiCG:  Solving for T, Initial residual = 0.0048579145, Final residual = 2.3935013e-07, No Iterations 3
DILUPBiCG:  Solving for T, Initial residual = 0.0028405206, Final residual = 4.1191631e-07, No Iterations 2
Time = 0.665

DILUPBiCG:  Solving for T, Initial residual = 0.0049447748, Final residual = 3.0820154e-07, No Iterations 3
DILUPBiCG:  Solving for T, Initial residual = 0.0028796736, Final residual = 4.5433208e-07, No Iterations 2
Time = 0.67

DILUPBiCG:  Solving for T, Initial residual = 0.0049881207, Final residual = 2.6228082e-07, No Iterations 3
DILUPBiCG:  Solving for T, Initial residual = 0.0030320015, Final residual = 4.2360613e-07, No Iterations 2
Time = 0.675

DILUPBiCG:  Solving for T, Initial residual = 0.0051073024, Final residual = 3.0550022e-07, No Iterations 3
DILUPBiCG:  Solving for T, Initial residual = 0.0031781916, Final residual = 4.6090598e-07, No Iterations 2
Time = 0.68

DILUPBiCG:  Solving for T, Initial residual = 0.0052159649, Final residual = 3.2268624e-07, No Iterations 3
DILUPBiCG:  Solving for T, Initial residual = 0.0032669654, Final residual = 4.7475965e-07, No Iterations 2
Time = 0.685

DILUPBiCG:  Solving for T, Initial residual = 0.0053003209, Final residual = 3.5862087e-07, No Iterations 3
DILUPBiCG:  Solving for T, Initial residual = 0.0032552947, Final residual = 4.9339263e-07, No Iterations 2
Time = 0.69

DILUPBiCG:  Solving for T, Initial residual = 0.0053651347, Final residual = 3.0221244e-07, No Iterations 3
DILUPBiCG:  Solving for T, Initial residual = 0.003552483, Final residual = 7.168771e-07, No Iterations 2
Time = 0.695

DILUPBiCG:  Solving for T, Initial residual = 0.0055729514, Final residual = 3.2694915e-07, No Iterations 3
DILUPBiCG:  Solving for T, Initial residual = 0.0037206681, Final residual = 5.6931091e-07, No Iterations 2
Time = 0.7

DILUPBiCG:  Solving for T, Initial residual = 0.0057263638, Final residual = 2.9681429e-07, No Iterations 3
DILUPBiCG:  Solving for T, Initial residual = 0.0037333583, Final residual = 6.1532304e-07, No Iterations 2
Time = 0.705

DILUPBiCG:  Solving for T, Initial residual = 0.0058465789, Final residual = 2.9221868e-07, No Iterations 3
DILUPBiCG:  Solving for T, Initial residual = 0.0039370408, Final residual = 5.2676677e-07, No Iterations 2
Time = 0.71

DILUPBiCG:  Solving for T, Initial residual = 0.0059869403, Final residual = 3.3523717e-07, No Iterations 3
DILUPBiCG:  Solving for T, Initial residual = 0.004081994, Final residual = 6.5672035e-07, No Iterations 2
Time = 0.715

DILUPBiCG:  Solving for T, Initial residual = 0.0060895016, Final residual = 3.89542e-07, No Iterations 3
DILUPBiCG:  Solving for T, Initial residual = 0.0040243588, Final residual = 6.2259163e-07, No Iterations 2
Time = 0.72

DILUPBiCG:  Solving for T, Initial residual = 0.006089044, Final residual = 6.5918917e-07, No Iterations 3
DILUPBiCG:  Solving for T, Initial residual = 0.004112471, Final residual = 5.8725041e-07, No Iterations 2
Time = 0.725

DILUPBiCG:  Solving for T, Initial residual = 0.0061390143, Final residual = 3.2832651e-07, No Iterations 3
DILUPBiCG:  Solving for T, Initial residual = 0.0041282627, Final residual = 5.8550631e-07, No Iterations 2
Time = 0.73

DILUPBiCG:  Solving for T, Initial residual = 0.0061702802, Final residual = 3.3797195e-07, No Iterations 3
DILUPBiCG:  Solving for T, Initial residual = 0.0042131934, Final residual = 5.8505227e-07, No Iterations 2
Time = 0.735

DILUPBiCG:  Solving for T, Initial residual = 0.0062060215, Final residual = 4.8725903e-07, No Iterations 3
DILUPBiCG:  Solving for T, Initial residual = 0.0042808442, Final residual = 7.9489495e-07, No Iterations 2
Time = 0.74

DILUPBiCG:  Solving for T, Initial residual = 0.0062663902, Final residual = 3.5897313e-07, No Iterations 3
DILUPBiCG:  Solving for T, Initial residual = 0.0042472482, Final residual = 6.4687496e-07, No Iterations 2
Time = 0.745

DILUPBiCG:  Solving for T, Initial residual = 0.0062460814, Final residual = 4.0323241e-07, No Iterations 3
DILUPBiCG:  Solving for T, Initial residual = 0.0043872207, Final residual = 6.1998615e-07, No Iterations 2
Time = 0.75

DILUPBiCG:  Solving for T, Initial residual = 0.0062747323, Final residual = 3.5649089e-07, No Iterations 3
DILUPBiCG:  Solving for T, Initial residual = 0.0043026462, Final residual = 6.3984851e-07, No Iterations 2
Time = 0.755

DILUPBiCG:  Solving for T, Initial residual = 0.006272641, Final residual = 4.3661144e-07, No Iterations 3
DILUPBiCG:  Solving for T, Initial residual = 0.0044203343, Final residual = 6.0589517e-07, No Iterations 2
Time = 0.76

DILUPBiCG:  Solving for T, Initial residual = 0.0063158557, Final residual = 4.2740148e-07, No Iterations 3
DILUPBiCG:  Solving for T, Initial residual = 0.0044976828, Final residual = 7.1751553e-07, No Iterations 2
Time = 0.765

DILUPBiCG:  Solving for T, Initial residual = 0.0063384556, Final residual = 3.8143618e-07, No Iterations 3
DILUPBiCG:  Solving for T, Initial residual = 0.0044007959, Final residual = 6.916405e-07, No Iterations 2
Time = 0.77

DILUPBiCG:  Solving for T, Initial residual = 0.0063105322, Final residual = 3.2417939e-07, No Iterations 3
DILUPBiCG:  Solving for T, Initial residual = 0.0044947304, Final residual = 5.8848891e-07, No Iterations 2
Time = 0.775

DILUPBiCG:  Solving for T, Initial residual = 0.0063467713, Final residual = 3.4852511e-07, No Iterations 3
DILUPBiCG:  Solving for T, Initial residual = 0.0045361772, Final residual = 6.2350082e-07, No Iterations 2
Time = 0.78

DILUPBiCG:  Solving for T, Initial residual = 0.0063532549, Final residual = 3.3125533e-07, No Iterations 3
DILUPBiCG:  Solving for T, Initial residual = 0.0046015372, Final residual = 7.628437e-07, No Iterations 2
Time = 0.785

DILUPBiCG:  Solving for T, Initial residual = 0.0063804835, Final residual = 3.3144713e-07, No Iterations 3
DILUPBiCG:  Solving for T, Initial residual = 0.0046020294, Final residual = 6.6793741e-07, No Iterations 2
Time = 0.79

DILUPBiCG:  Solving for T, Initial residual = 0.0063858994, Final residual = 3.1629084e-07, No Iterations 3
DILUPBiCG:  Solving for T, Initial residual = 0.0045851764, Final residual = 6.756147e-07, No Iterations 2
Time = 0.795

DILUPBiCG:  Solving for T, Initial residual = 0.0063710557, Final residual = 3.1961686e-07, No Iterations 3
DILUPBiCG:  Solving for T, Initial residual = 0.0047483639, Final residual = 5.5253819e-08, No Iterations 3
Time = 0.8

DILUPBiCG:  Solving for T, Initial residual = 0.0064232361, Final residual = 3.5516333e-07, No Iterations 3
DILUPBiCG:  Solving for T, Initial residual = 0.0046420327, Final residual = 6.5233612e-07, No Iterations 2
Time = 0.805

DILUPBiCG:  Solving for T, Initial residual = 0.0063816653, Final residual = 2.7156876e-07, No Iterations 3
DILUPBiCG:  Solving for T, Initial residual = 0.0047275853, Final residual = 7.2863868e-07, No Iterations 2
Time = 0.81

DILUPBiCG:  Solving for T, Initial residual = 0.0064121363, Final residual = 4.4955404e-07, No Iterations 3
DILUPBiCG:  Solving for T, Initial residual = 0.0047785672, Final residual = 7.1574391e-07, No Iterations 2
Time = 0.815

DILUPBiCG:  Solving for T, Initial residual = 0.0064391422, Final residual = 3.4708574e-07, No Iterations 3
DILUPBiCG:  Solving for T, Initial residual = 0.0047560662, Final residual = 6.4779132e-07, No Iterations 2
Time = 0.82

DILUPBiCG:  Solving for T, Initial residual = 0.0064331562, Final residual = 3.4946162e-07, No Iterations 3
DILUPBiCG:  Solving for T, Initial residual = 0.0048813106, Final residual = 2.1438143e-08, No Iterations 3
Time = 0.825

DILUPBiCG:  Solving for T, Initial residual = 0.006463164, Final residual = 3.6254545e-07, No Iterations 3
DILUPBiCG:  Solving for T, Initial residual = 0.004793617, Final residual = 7.1923368e-07, No Iterations 2
Time = 0.83

DILUPBiCG:  Solving for T, Initial residual = 0.0064282892, Final residual = 3.7073757e-07, No Iterations 3
DILUPBiCG:  Solving for T, Initial residual = 0.0048799125, Final residual = 6.8152333e-07, No Iterations 2
Time = 0.835

DILUPBiCG:  Solving for T, Initial residual = 0.0064673794, Final residual = 4.4120708e-07, No Iterations 3
DILUPBiCG:  Solving for T, Initial residual = 0.0049786894, Final residual = 1.9152712e-08, No Iterations 3
Time = 0.84

DILUPBiCG:  Solving for T, Initial residual = 0.006507855, Final residual = 3.396124e-07, No Iterations 3
DILUPBiCG:  Solving for T, Initial residual = 0.0048937676, Final residual = 6.9075019e-07, No Iterations 2
Time = 0.845

DILUPBiCG:  Solving for T, Initial residual = 0.0064788111, Final residual = 3.9447881e-07, No Iterations 3
DILUPBiCG:  Solving for T, Initial residual = 0.0049730903, Final residual = 7.6443178e-07, No Iterations 2
Time = 0.85

DILUPBiCG:  Solving for T, Initial residual = 0.006486654, Final residual = 3.9535583e-07, No Iterations 3
DILUPBiCG:  Solving for T, Initial residual = 0.0050034512, Final residual = 7.0752103e-07, No Iterations 2
Time = 0.855

DILUPBiCG:  Solving for T, Initial residual = 0.0064846468, Final residual = 3.3601484e-07, No Iterations 3
DILUPBiCG:  Solving for T, Initial residual = 0.0049766379, Final residual = 6.5073917e-07, No Iterations 2
Time = 0.86

DILUPBiCG:  Solving for T, Initial residual = 0.0064732976, Final residual = 3.779892e-07, No Iterations 3
DILUPBiCG:  Solving for T, Initial residual = 0.0050668212, Final residual = 7.19895e-07, No Iterations 2
Time = 0.865

DILUPBiCG:  Solving for T, Initial residual = 0.006519806, Final residual = 3.7381827e-07, No Iterations 3
DILUPBiCG:  Solving for T, Initial residual = 0.005078134, Final residual = 7.2901334e-07, No Iterations 2
Time = 0.87

DILUPBiCG:  Solving for T, Initial residual = 0.0064909428, Final residual = 3.3799233e-07, No Iterations 3
DILUPBiCG:  Solving for T, Initial residual = 0.0050769747, Final residual = 8.4165477e-07, No Iterations 2
Time = 0.875

DILUPBiCG:  Solving for T, Initial residual = 0.006493898, Final residual = 2.9481071e-07, No Iterations 3
DILUPBiCG:  Solving for T, Initial residual = 0.0051065866, Final residual = 7.3124527e-07, No Iterations 2
Time = 0.88

DILUPBiCG:  Solving for T, Initial residual = 0.0064886142, Final residual = 3.8315498e-07, No Iterations 3
DILUPBiCG:  Solving for T, Initial residual = 0.0051616601, Final residual = 6.8479601e-07, No Iterations 2
Time = 0.885

DILUPBiCG:  Solving for T, Initial residual = 0.0065158917, Final residual = 3.6464213e-07, No Iterations 3
DILUPBiCG:  Solving for T, Initial residual = 0.005164293, Final residual = 7.0674411e-07, No Iterations 2
Time = 0.89

DILUPBiCG:  Solving for T, Initial residual = 0.0065329051, Final residual = 4.0913793e-07, No Iterations 3
DILUPBiCG:  Solving for T, Initial residual = 0.0051856674, Final residual = 7.443415e-07, No Iterations 2
Time = 0.895

DILUPBiCG:  Solving for T, Initial residual = 0.0065304743, Final residual = 4.3218656e-07, No Iterations 3
DILUPBiCG:  Solving for T, Initial residual = 0.0052477935, Final residual = 7.5093723e-07, No Iterations 2
Time = 0.9

DILUPBiCG:  Solving for T, Initial residual = 0.006532979, Final residual = 3.3228818e-07, No Iterations 3
DILUPBiCG:  Solving for T, Initial residual = 0.0052145769, Final residual = 7.8074314e-07, No Iterations 2
Time = 0.905

DILUPBiCG:  Solving for T, Initial residual = 0.006513454, Final residual = 3.4593199e-07, No Iterations 3
DILUPBiCG:  Solving for T, Initial residual = 0.0052517477, Final residual = 7.7129065e-07, No Iterations 2
Time = 0.91

DILUPBiCG:  Solving for T, Initial residual = 0.0065208109, Final residual = 3.8489149e-07, No Iterations 3
DILUPBiCG:  Solving for T, Initial residual = 0.0053178554, Final residual = 7.2730945e-07, No Iterations 2
Time = 0.915

DILUPBiCG:  Solving for T, Initial residual = 0.0065696948, Final residual = 3.697827e-07, No Iterations 3
DILUPBiCG:  Solving for T, Initial residual = 0.0053201469, Final residual = 8.029374e-07, No Iterations 2
Time = 0.92

DILUPBiCG:  Solving for T, Initial residual = 0.0065619817, Final residual = 3.7755536e-07, No Iterations 3
DILUPBiCG:  Solving for T, Initial residual = 0.0053502593, Final residual = 4.0858309e-08, No Iterations 3
Time = 0.925

DILUPBiCG:  Solving for T, Initial residual = 0.006540684, Final residual = 3.6338056e-07, No Iterations 3
DILUPBiCG:  Solving for T, Initial residual = 0.0054197803, Final residual = 1.9018493e-08, No Iterations 3
Time = 0.93

DILUPBiCG:  Solving for T, Initial residual = 0.0065657064, Final residual = 3.6539373e-07, No Iterations 3
DILUPBiCG:  Solving for T, Initial residual = 0.0053239178, Final residual = 7.8036845e-07, No Iterations 2
Time = 0.935

DILUPBiCG:  Solving for T, Initial residual = 0.0065493258, Final residual = 3.4669758e-07, No Iterations 3
DILUPBiCG:  Solving for T, Initial residual = 0.0054278027, Final residual = 7.2686895e-07, No Iterations 2
Time = 0.94

DILUPBiCG:  Solving for T, Initial residual = 0.0065573238, Final residual = 4.2682632e-07, No Iterations 3
DILUPBiCG:  Solving for T, Initial residual = 0.0054348954, Final residual = 6.7786654e-07, No Iterations 2
Time = 0.945

DILUPBiCG:  Solving for T, Initial residual = 0.006576497, Final residual = 4.1961599e-07, No Iterations 3
DILUPBiCG:  Solving for T, Initial residual = 0.0054384458, Final residual = 7.1322667e-07, No Iterations 2
Time = 0.95

DILUPBiCG:  Solving for T, Initial residual = 0.0065600387, Final residual = 3.3866365e-07, No Iterations 3
DILUPBiCG:  Solving for T, Initial residual = 0.0054608334, Final residual = 8.3699952e-07, No Iterations 2
Time = 0.955

DILUPBiCG:  Solving for T, Initial residual = 0.0065718233, Final residual = 3.7968588e-07, No Iterations 3
DILUPBiCG:  Solving for T, Initial residual = 0.0055467994, Final residual = 7.5991862e-07, No Iterations 2
Time = 0.96

DILUPBiCG:  Solving for T, Initial residual = 0.0065951191, Final residual = 4.3475554e-07, No Iterations 3
DILUPBiCG:  Solving for T, Initial residual = 0.0055225681, Final residual = 7.289036e-07, No Iterations 2
Time = 0.965

DILUPBiCG:  Solving for T, Initial residual = 0.0065798778, Final residual = 3.3578813e-07, No Iterations 3
DILUPBiCG:  Solving for T, Initial residual = 0.0055136283, Final residual = 7.6892909e-07, No Iterations 2
Time = 0.97

DILUPBiCG:  Solving for T, Initial residual = 0.0065743451, Final residual = 3.1805677e-07, No Iterations 3
DILUPBiCG:  Solving for T, Initial residual = 0.0056709792, Final residual = 1.5925757e-08, No Iterations 3
Time = 0.975

DILUPBiCG:  Solving for T, Initial residual = 0.0066276913, Final residual = 5.1055415e-07, No Iterations 3
DILUPBiCG:  Solving for T, Initial residual = 0.0054823468, Final residual = 7.9769658e-07, No Iterations 2
Time = 0.98

DILUPBiCG:  Solving for T, Initial residual = 0.0065767801, Final residual = 3.4524358e-07, No Iterations 3
DILUPBiCG:  Solving for T, Initial residual = 0.0056841989, Final residual = 8.9573218e-07, No Iterations 2
Time = 0.985

DILUPBiCG:  Solving for T, Initial residual = 0.0066357223, Final residual = 3.2404422e-07, No Iterations 3
DILUPBiCG:  Solving for T, Initial residual = 0.0056883449, Final residual = 2.4208486e-08, No Iterations 3
Time = 0.99

DILUPBiCG:  Solving for T, Initial residual = 0.0066720036, Final residual = 4.0909692e-07, No Iterations 3
DILUPBiCG:  Solving for T, Initial residual = 0.005708454, Final residual = 8.7328344e-07, No Iterations 2
Time = 0.995

DILUPBiCG:  Solving for T, Initial residual = 0.0066824326, Final residual = 3.9739093e-07, No Iterations 3
DILUPBiCG:  Solving for T, Initial residual = 0.0057584766, Final residual = 8.7247806e-07, No Iterations 2
Time = 1

DILUPBiCG:  Solving for T, Initial residual = 0.0067015538, Final residual = 3.2727013e-07, No Iterations 3
DILUPBiCG:  Solving for T, Initial residual = 0.0057963739, Final residual = 1.3454311e-08, No Iterations 3
Time = 1.005

DILUPBiCG:  Solving for T, Initial residual = 0.0067437354, Final residual = 3.2835929e-07, No Iterations 3
DILUPBiCG:  Solving for T, Initial residual = 0.0058532979, Final residual = 5.3307308e-08, No Iterations 3
Time = 1.01

DILUPBiCG:  Solving for T, Initial residual = 0.0067693226, Final residual = 4.0845401e-07, No Iterations 3
DILUPBiCG:  Solving for T, Initial residual = 0.0059229269, Final residual = 4.4986016e-07, No Iterations 3
Time = 1.015

DILUPBiCG:  Solving for T, Initial residual = 0.0068395892, Final residual = 3.2946049e-07, No Iterations 3
DILUPBiCG:  Solving for T, Initial residual = 0.0059304813, Final residual = 9.9721912e-07, No Iterations 2
Time = 1.02

DILUPBiCG:  Solving for T, Initial residual = 0.0068768065, Final residual = 3.9952171e-07, No Iterations 3
DILUPBiCG:  Solving for T, Initial residual = 0.0060125853, Final residual = 7.6990253e-07, No Iterations 2
Time = 1.025

DILUPBiCG:  Solving for T, Initial residual = 0.0069226961, Final residual = 3.6285273e-07, No Iterations 3
DILUPBiCG:  Solving for T, Initial residual = 0.0060440618, Final residual = 8.1678692e-07, No Iterations 2
Time = 1.03

DILUPBiCG:  Solving for T, Initial residual = 0.0070206741, Final residual = 3.5575211e-07, No Iterations 3
DILUPBiCG:  Solving for T, Initial residual = 0.0062212933, Final residual = 3.3980122e-08, No Iterations 3
Time = 1.035

DILUPBiCG:  Solving for T, Initial residual = 0.0071268295, Final residual = 4.2303031e-07, No Iterations 3
DILUPBiCG:  Solving for T, Initial residual = 0.0062013568, Final residual = 8.5243599e-07, No Iterations 2
Time = 1.04

DILUPBiCG:  Solving for T, Initial residual = 0.0071809199, Final residual = 3.4938249e-07, No Iterations 3
DILUPBiCG:  Solving for T, Initial residual = 0.0062789128, Final residual = 8.0970453e-07, No Iterations 2
Time = 1.045

DILUPBiCG:  Solving for T, Initial residual = 0.0072442997, Final residual = 4.4685558e-07, No Iterations 3
DILUPBiCG:  Solving for T, Initial residual = 0.0063282271, Final residual = 9.4898313e-07, No Iterations 2
Time = 1.05

DILUPBiCG:  Solving for T, Initial residual = 0.0072740491, Final residual = 4.3437482e-07, No Iterations 3
DILUPBiCG:  Solving for T, Initial residual = 0.006454011, Final residual = 2.0235933e-08, No Iterations 3
Time = 1.055

DILUPBiCG:  Solving for T, Initial residual = 0.0073704272, Final residual = 5.810854e-07, No Iterations 3
DILUPBiCG:  Solving for T, Initial residual = 0.0062869496, Final residual = 9.9074597e-07, No Iterations 2
Time = 1.06

DILUPBiCG:  Solving for T, Initial residual = 0.0073405589, Final residual = 4.5131091e-07, No Iterations 3
DILUPBiCG:  Solving for T, Initial residual = 0.0065340481, Final residual = 2.7280962e-08, No Iterations 3
Time = 1.065

DILUPBiCG:  Solving for T, Initial residual = 0.0074451438, Final residual = 4.9738681e-07, No Iterations 3
DILUPBiCG:  Solving for T, Initial residual = 0.0064235117, Final residual = 9.5053323e-07, No Iterations 2
Time = 1.07

DILUPBiCG:  Solving for T, Initial residual = 0.0074575172, Final residual = 4.1253942e-07, No Iterations 3
DILUPBiCG:  Solving for T, Initial residual = 0.0066215908, Final residual = 1.8249999e-08, No Iterations 3
Time = 1.075

DILUPBiCG:  Solving for T, Initial residual = 0.0075390833, Final residual = 4.3236056e-07, No Iterations 3
DILUPBiCG:  Solving for T, Initial residual = 0.0066368106, Final residual = 2.3374144e-08, No Iterations 3
Time = 1.08

DILUPBiCG:  Solving for T, Initial residual = 0.0076051155, Final residual = 5.0558702e-07, No Iterations 3
DILUPBiCG:  Solving for T, Initial residual = 0.0065012861, Final residual = 9.5680922e-07, No Iterations 2
Time = 1.085

DILUPBiCG:  Solving for T, Initial residual = 0.0075803938, Final residual = 4.9990062e-07, No Iterations 3
DILUPBiCG:  Solving for T, Initial residual = 0.0066832793, Final residual = 2.5149794e-08, No Iterations 3
Time = 1.09

DILUPBiCG:  Solving for T, Initial residual = 0.0076238459, Final residual = 4.5669089e-07, No Iterations 3
DILUPBiCG:  Solving for T, Initial residual = 0.0066751381, Final residual = 4.4671877e-08, No Iterations 3
Time = 1.095

DILUPBiCG:  Solving for T, Initial residual = 0.0076498735, Final residual = 4.9134929e-07, No Iterations 3
DILUPBiCG:  Solving for T, Initial residual = 0.0066708551, Final residual = 8.8105256e-07, No Iterations 2
Time = 1.1

DILUPBiCG:  Solving for T, Initial residual = 0.0076619036, Final residual = 4.7009855e-07, No Iterations 3
DILUPBiCG:  Solving for T, Initial residual = 0.0067012656, Final residual = 9.2074749e-07, No Iterations 2
Time = 1.105

DILUPBiCG:  Solving for T, Initial residual = 0.0077259402, Final residual = 5.17853e-07, No Iterations 3
DILUPBiCG:  Solving for T, Initial residual = 0.0068119301, Final residual = 1.9970401e-08, No Iterations 3
Time = 1.11

DILUPBiCG:  Solving for T, Initial residual = 0.0077895707, Final residual = 5.4525611e-07, No Iterations 3
DILUPBiCG:  Solving for T, Initial residual = 0.0067543107, Final residual = 9.8910039e-07, No Iterations 2
Time = 1.115

DILUPBiCG:  Solving for T, Initial residual = 0.007789528, Final residual = 4.7198266e-07, No Iterations 3
DILUPBiCG:  Solving for T, Initial residual = 0.0068158252, Final residual = 7.0208752e-08, No Iterations 3
Time = 1.12

DILUPBiCG:  Solving for T, Initial residual = 0.0078153325, Final residual = 4.8432663e-07, No Iterations 3
DILUPBiCG:  Solving for T, Initial residual = 0.0068412626, Final residual = 6.5442421e-08, No Iterations 3
Time = 1.125

DILUPBiCG:  Solving for T, Initial residual = 0.0078584953, Final residual = 4.5622121e-07, No Iterations 3
DILUPBiCG:  Solving for T, Initial residual = 0.0069305588, Final residual = 8.595303e-07, No Iterations 2
Time = 1.13

DILUPBiCG:  Solving for T, Initial residual = 0.0079136644, Final residual = 5.2631997e-07, No Iterations 3
DILUPBiCG:  Solving for T, Initial residual = 0.0068790152, Final residual = 9.6005381e-07, No Iterations 2
Time = 1.135

DILUPBiCG:  Solving for T, Initial residual = 0.0079268021, Final residual = 4.3980138e-07, No Iterations 3
DILUPBiCG:  Solving for T, Initial residual = 0.006973803, Final residual = 9.2545493e-08, No Iterations 3
Time = 1.14

DILUPBiCG:  Solving for T, Initial residual = 0.0079993904, Final residual = 6.1536114e-07, No Iterations 3
DILUPBiCG:  Solving for T, Initial residual = 0.0070596229, Final residual = 4.0313279e-08, No Iterations 3
Time = 1.145

DILUPBiCG:  Solving for T, Initial residual = 0.0080733401, Final residual = 6.8927023e-07, No Iterations 3
DILUPBiCG:  Solving for T, Initial residual = 0.007038113, Final residual = 9.7530876e-07, No Iterations 2
Time = 1.15

DILUPBiCG:  Solving for T, Initial residual = 0.0080949813, Final residual = 3.9057073e-07, No Iterations 3
DILUPBiCG:  Solving for T, Initial residual = 0.0071886039, Final residual = 3.2538886e-08, No Iterations 3
Time = 1.155

DILUPBiCG:  Solving for T, Initial residual = 0.0081924364, Final residual = 4.553299e-07, No Iterations 3
DILUPBiCG:  Solving for T, Initial residual = 0.0070541636, Final residual = 2.5404711e-08, No Iterations 3
Time = 1.16

DILUPBiCG:  Solving for T, Initial residual = 0.0082062748, Final residual = 5.1268688e-07, No Iterations 3
DILUPBiCG:  Solving for T, Initial residual = 0.0072519474, Final residual = 2.1921698e-07, No Iterations 3
Time = 1.165

DILUPBiCG:  Solving for T, Initial residual = 0.0083235717, Final residual = 7.7325232e-07, No Iterations 3
DILUPBiCG:  Solving for T, Initial residual = 0.0072851266, Final residual = 3.76853e-08, No Iterations 3
Time = 1.17

DILUPBiCG:  Solving for T, Initial residual = 0.0083823194, Final residual = 5.2120817e-07, No Iterations 3
DILUPBiCG:  Solving for T, Initial residual = 0.0073647501, Final residual = 2.4066571e-08, No Iterations 3
Time = 1.175

DILUPBiCG:  Solving for T, Initial residual = 0.0084545316, Final residual = 7.8690641e-07, No Iterations 3
DILUPBiCG:  Solving for T, Initial residual = 0.0074552178, Final residual = 4.0436751e-08, No Iterations 3
Time = 1.18

DILUPBiCG:  Solving for T, Initial residual = 0.0085432994, Final residual = 2.2743782e-08, No Iterations 4
DILUPBiCG:  Solving for T, Initial residual = 0.0074333356, Final residual = 2.7976113e-08, No Iterations 3
Time = 1.185

DILUPBiCG:  Solving for T, Initial residual = 0.0085600057, Final residual = 3.7163749e-07, No Iterations 3
DILUPBiCG:  Solving for T, Initial residual = 0.0073616697, Final residual = 3.0721523e-08, No Iterations 3
Time = 1.19

DILUPBiCG:  Solving for T, Initial residual = 0.0085494491, Final residual = 5.0268659e-07, No Iterations 3
DILUPBiCG:  Solving for T, Initial residual = 0.0074513777, Final residual = 1.3007736e-07, No Iterations 3
Time = 1.195

DILUPBiCG:  Solving for T, Initial residual = 0.0085937364, Final residual = 8.6764385e-07, No Iterations 3
DILUPBiCG:  Solving for T, Initial residual = 0.007544477, Final residual = 9.0430057e-07, No Iterations 2
Time = 1.2

DILUPBiCG:  Solving for T, Initial residual = 0.0086562335, Final residual = 5.1540824e-07, No Iterations 3
DILUPBiCG:  Solving for T, Initial residual = 0.0074808489, Final residual = 3.9368432e-08, No Iterations 3
Time = 1.205

DILUPBiCG:  Solving for T, Initial residual = 0.0086631199, Final residual = 6.0202089e-07, No Iterations 3
DILUPBiCG:  Solving for T, Initial residual = 0.0075695317, Final residual = 8.8043905e-08, No Iterations 3
Time = 1.21

DILUPBiCG:  Solving for T, Initial residual = 0.0087077193, Final residual = 5.471994e-07, No Iterations 3
DILUPBiCG:  Solving for T, Initial residual = 0.0075532545, Final residual = 6.8877907e-08, No Iterations 3
Time = 1.215

DILUPBiCG:  Solving for T, Initial residual = 0.0086989562, Final residual = 6.3752977e-07, No Iterations 3
DILUPBiCG:  Solving for T, Initial residual = 0.0075520151, Final residual = 8.7221368e-10, No Iterations 4
Time = 1.22

DILUPBiCG:  Solving for T, Initial residual = 0.0087025029, Final residual = 7.7124177e-07, No Iterations 3
DILUPBiCG:  Solving for T, Initial residual = 0.0075100211, Final residual = 5.7413442e-08, No Iterations 3
Time = 1.225

DILUPBiCG:  Solving for T, Initial residual = 0.0087213036, Final residual = 4.2787746e-07, No Iterations 3
DILUPBiCG:  Solving for T, Initial residual = 0.0076105445, Final residual = 1.216817e-07, No Iterations 3
Time = 1.23

DILUPBiCG:  Solving for T, Initial residual = 0.0087304856, Final residual = 7.6089575e-07, No Iterations 3
DILUPBiCG:  Solving for T, Initial residual = 0.0075568723, Final residual = 7.3353714e-08, No Iterations 3
Time = 1.235

DILUPBiCG:  Solving for T, Initial residual = 0.008723191, Final residual = 9.0710104e-07, No Iterations 3
DILUPBiCG:  Solving for T, Initial residual = 0.0075183382, Final residual = 2.9414432e-08, No Iterations 3
Time = 1.24

DILUPBiCG:  Solving for T, Initial residual = 0.0087015094, Final residual = 4.6043474e-07, No Iterations 3
DILUPBiCG:  Solving for T, Initial residual = 0.0075388399, Final residual = 2.8767134e-08, No Iterations 3
Time = 1.245

DILUPBiCG:  Solving for T, Initial residual = 0.0086891605, Final residual = 4.9722754e-07, No Iterations 3
DILUPBiCG:  Solving for T, Initial residual = 0.0075258463, Final residual = 9.7486713e-07, No Iterations 2
Time = 1.25

DILUPBiCG:  Solving for T, Initial residual = 0.0087008909, Final residual = 5.4780131e-07, No Iterations 3
DILUPBiCG:  Solving for T, Initial residual = 0.0075358412, Final residual = 8.6246334e-08, No Iterations 3
Time = 1.255

DILUPBiCG:  Solving for T, Initial residual = 0.0087152222, Final residual = 8.9526647e-07, No Iterations 3
DILUPBiCG:  Solving for T, Initial residual = 0.0075813681, Final residual = 3.9200454e-08, No Iterations 3
Time = 1.26

DILUPBiCG:  Solving for T, Initial residual = 0.0087129426, Final residual = 5.1313746e-07, No Iterations 3
DILUPBiCG:  Solving for T, Initial residual = 0.0075312378, Final residual = 9.8942956e-07, No Iterations 2
Time = 1.265

DILUPBiCG:  Solving for T, Initial residual = 0.0087183677, Final residual = 5.7623206e-07, No Iterations 3
DILUPBiCG:  Solving for T, Initial residual = 0.0075812891, Final residual = 1.7810734e-07, No Iterations 3
Time = 1.27

DILUPBiCG:  Solving for T, Initial residual = 0.008731045, Final residual = 4.4354729e-07, No Iterations 3
DILUPBiCG:  Solving for T, Initial residual = 0.00757896, Final residual = 9.5197644e-07, No Iterations 2
Time = 1.275

DILUPBiCG:  Solving for T, Initial residual = 0.0087605159, Final residual = 4.8761392e-07, No Iterations 3
DILUPBiCG:  Solving for T, Initial residual = 0.0075250435, Final residual = 3.4851784e-08, No Iterations 3
Time = 1.28

DILUPBiCG:  Solving for T, Initial residual = 0.0087393507, Final residual = 4.2398406e-07, No Iterations 3
DILUPBiCG:  Solving for T, Initial residual = 0.0076715926, Final residual = 9.6204924e-08, No Iterations 3
Time = 1.285

DILUPBiCG:  Solving for T, Initial residual = 0.0087686706, Final residual = 5.1781218e-07, No Iterations 3
DILUPBiCG:  Solving for T, Initial residual = 0.0075410926, Final residual = 3.0319276e-08, No Iterations 3
Time = 1.29

DILUPBiCG:  Solving for T, Initial residual = 0.008725379, Final residual = 4.5787378e-07, No Iterations 3
DILUPBiCG:  Solving for T, Initial residual = 0.0075070387, Final residual = 2.7655808e-08, No Iterations 3
Time = 1.295

DILUPBiCG:  Solving for T, Initial residual = 0.0087074027, Final residual = 5.405513e-07, No Iterations 3
DILUPBiCG:  Solving for T, Initial residual = 0.0076292643, Final residual = 9.4201664e-07, No Iterations 2
Time = 1.3

DILUPBiCG:  Solving for T, Initial residual = 0.0087569665, Final residual = 5.4541466e-07, No Iterations 3
DILUPBiCG:  Solving for T, Initial residual = 0.0075020484, Final residual = 9.8810023e-07, No Iterations 2
Time = 1.305

DILUPBiCG:  Solving for T, Initial residual = 0.0087453509, Final residual = 4.6375584e-07, No Iterations 3
DILUPBiCG:  Solving for T, Initial residual = 0.0076809275, Final residual = 4.6580777e-08, No Iterations 3
Time = 1.31

DILUPBiCG:  Solving for T, Initial residual = 0.0087958086, Final residual = 5.7698694e-07, No Iterations 3
DILUPBiCG:  Solving for T, Initial residual = 0.0075701011, Final residual = 3.1129841e-08, No Iterations 3
Time = 1.315

DILUPBiCG:  Solving for T, Initial residual = 0.0087614422, Final residual = 4.070411e-07, No Iterations 3
DILUPBiCG:  Solving for T, Initial residual = 0.0075606925, Final residual = 2.7168392e-08, No Iterations 3
Time = 1.32

DILUPBiCG:  Solving for T, Initial residual = 0.0087427058, Final residual = 5.543089e-07, No Iterations 3
DILUPBiCG:  Solving for T, Initial residual = 0.0075977706, Final residual = 9.6124672e-07, No Iterations 2
Time = 1.325

DILUPBiCG:  Solving for T, Initial residual = 0.0087670084, Final residual = 4.748271e-07, No Iterations 3
DILUPBiCG:  Solving for T, Initial residual = 0.0075493027, Final residual = 3.5392978e-08, No Iterations 3
Time = 1.33

DILUPBiCG:  Solving for T, Initial residual = 0.0087429139, Final residual = 4.9714156e-07, No Iterations 3
DILUPBiCG:  Solving for T, Initial residual = 0.007638332, Final residual = 9.1038827e-07, No Iterations 3
Time = 1.335

DILUPBiCG:  Solving for T, Initial residual = 0.0087633122, Final residual = 5.2028814e-07, No Iterations 3
DILUPBiCG:  Solving for T, Initial residual = 0.0075679003, Final residual = 4.9519397e-08, No Iterations 3
Time = 1.34

DILUPBiCG:  Solving for T, Initial residual = 0.0087761057, Final residual = 5.3509747e-07, No Iterations 3
DILUPBiCG:  Solving for T, Initial residual = 0.0076018831, Final residual = 3.8362836e-08, No Iterations 3
Time = 1.345

DILUPBiCG:  Solving for T, Initial residual = 0.0087464272, Final residual = 4.9579661e-07, No Iterations 3
DILUPBiCG:  Solving for T, Initial residual = 0.0076171263, Final residual = 1.4554111e-07, No Iterations 3
Time = 1.35

DILUPBiCG:  Solving for T, Initial residual = 0.0087559638, Final residual = 4.3732877e-07, No Iterations 3
DILUPBiCG:  Solving for T, Initial residual = 0.0075370233, Final residual = 3.2540065e-08, No Iterations 3
Time = 1.355

DILUPBiCG:  Solving for T, Initial residual = 0.0087527242, Final residual = 7.1371574e-07, No Iterations 3
DILUPBiCG:  Solving for T, Initial residual = 0.0075914152, Final residual = 9.8048925e-07, No Iterations 2
Time = 1.36

DILUPBiCG:  Solving for T, Initial residual = 0.0087757167, Final residual = 3.8689606e-07, No Iterations 3
DILUPBiCG:  Solving for T, Initial residual = 0.0076383848, Final residual = 1.055972e-07, No Iterations 3
Time = 1.365

DILUPBiCG:  Solving for T, Initial residual = 0.0087936514, Final residual = 6.300572e-07, No Iterations 3
DILUPBiCG:  Solving for T, Initial residual = 0.0076279361, Final residual = 9.8850323e-07, No Iterations 2
Time = 1.37

DILUPBiCG:  Solving for T, Initial residual = 0.0087834803, Final residual = 6.4123215e-07, No Iterations 3
DILUPBiCG:  Solving for T, Initial residual = 0.0075348794, Final residual = 2.6767874e-08, No Iterations 3
Time = 1.375

DILUPBiCG:  Solving for T, Initial residual = 0.0087180535, Final residual = 4.9128637e-07, No Iterations 3
DILUPBiCG:  Solving for T, Initial residual = 0.0075816295, Final residual = 9.8702547e-07, No Iterations 2
Time = 1.38

DILUPBiCG:  Solving for T, Initial residual = 0.0087463954, Final residual = 5.6651886e-07, No Iterations 3
DILUPBiCG:  Solving for T, Initial residual = 0.0075479055, Final residual = 9.9476642e-07, No Iterations 2
Time = 1.385

DILUPBiCG:  Solving for T, Initial residual = 0.0087482536, Final residual = 5.3922858e-07, No Iterations 3
DILUPBiCG:  Solving for T, Initial residual = 0.0076271407, Final residual = 2.8739488e-08, No Iterations 3
Time = 1.39

DILUPBiCG:  Solving for T, Initial residual = 0.0087519837, Final residual = 5.0625684e-07, No Iterations 3
DILUPBiCG:  Solving for T, Initial residual = 0.0075725705, Final residual = 3.3362791e-08, No Iterations 3
Time = 1.395

DILUPBiCG:  Solving for T, Initial residual = 0.0087389298, Final residual = 4.7774232e-07, No Iterations 3
DILUPBiCG:  Solving for T, Initial residual = 0.007525183, Final residual = 2.4969638e-08, No Iterations 3
Time = 1.4

DILUPBiCG:  Solving for T, Initial residual = 0.0087362697, Final residual = 4.7473323e-07, No Iterations 3
DILUPBiCG:  Solving for T, Initial residual = 0.0075479823, Final residual = 2.7874276e-08, No Iterations 3
Time = 1.405

DILUPBiCG:  Solving for T, Initial residual = 0.0087059492, Final residual = 4.9599217e-07, No Iterations 3
DILUPBiCG:  Solving for T, Initial residual = 0.0076217461, Final residual = 1.3120886e-07, No Iterations 3
Time = 1.41

DILUPBiCG:  Solving for T, Initial residual = 0.0087391931, Final residual = 5.729018e-07, No Iterations 3
DILUPBiCG:  Solving for T, Initial residual = 0.0076278312, Final residual = 9.4572064e-08, No Iterations 3
Time = 1.415

DILUPBiCG:  Solving for T, Initial residual = 0.0087582341, Final residual = 4.953173e-07, No Iterations 3
DILUPBiCG:  Solving for T, Initial residual = 0.0075936742, Final residual = 3.4631797e-08, No Iterations 3
Time = 1.42

DILUPBiCG:  Solving for T, Initial residual = 0.0087445155, Final residual = 6.3432695e-07, No Iterations 3
DILUPBiCG:  Solving for T, Initial residual = 0.0075274672, Final residual = 2.5749038e-08, No Iterations 3
Time = 1.425

DILUPBiCG:  Solving for T, Initial residual = 0.0087173365, Final residual = 4.2334829e-07, No Iterations 3
DILUPBiCG:  Solving for T, Initial residual = 0.0075941591, Final residual = 1.6973824e-07, No Iterations 3
Time = 1.43

DILUPBiCG:  Solving for T, Initial residual = 0.008741728, Final residual = 5.2126717e-07, No Iterations 3
DILUPBiCG:  Solving for T, Initial residual = 0.0076058844, Final residual = 3.8871541e-08, No Iterations 3
Time = 1.435

DILUPBiCG:  Solving for T, Initial residual = 0.0087528274, Final residual = 4.6842407e-07, No Iterations 3
DILUPBiCG:  Solving for T, Initial residual = 0.0076237713, Final residual = 5.7961355e-08, No Iterations 3
Time = 1.44

DILUPBiCG:  Solving for T, Initial residual = 0.0087795567, Final residual = 4.9400121e-07, No Iterations 3
DILUPBiCG:  Solving for T, Initial residual = 0.007565163, Final residual = 2.6990439e-08, No Iterations 3
Time = 1.445

DILUPBiCG:  Solving for T, Initial residual = 0.0087423101, Final residual = 4.7644576e-07, No Iterations 3
DILUPBiCG:  Solving for T, Initial residual = 0.007562432, Final residual = 5.5144793e-08, No Iterations 3
Time = 1.45

DILUPBiCG:  Solving for T, Initial residual = 0.008746397, Final residual = 7.5191888e-07, No Iterations 3
DILUPBiCG:  Solving for T, Initial residual = 0.007675073, Final residual = 6.9704283e-10, No Iterations 4
Time = 1.455

DILUPBiCG:  Solving for T, Initial residual = 0.0087626616, Final residual = 5.4866558e-07, No Iterations 3
DILUPBiCG:  Solving for T, Initial residual = 0.0075141197, Final residual = 2.4896769e-08, No Iterations 3
Time = 1.46

DILUPBiCG:  Solving for T, Initial residual = 0.0087387564, Final residual = 5.4230044e-07, No Iterations 3
DILUPBiCG:  Solving for T, Initial residual = 0.007586163, Final residual = 9.9290814e-07, No Iterations 2
Time = 1.465

DILUPBiCG:  Solving for T, Initial residual = 0.0087589809, Final residual = 7.2062909e-07, No Iterations 3
DILUPBiCG:  Solving for T, Initial residual = 0.0075592009, Final residual = 3.0205068e-08, No Iterations 3
Time = 1.47

DILUPBiCG:  Solving for T, Initial residual = 0.0087497511, Final residual = 5.0382344e-07, No Iterations 3
DILUPBiCG:  Solving for T, Initial residual = 0.0076518904, Final residual = 9.5961893e-07, No Iterations 2
Time = 1.475

DILUPBiCG:  Solving for T, Initial residual = 0.008764867, Final residual = 5.4345523e-07, No Iterations 3
DILUPBiCG:  Solving for T, Initial residual = 0.0075421473, Final residual = 2.8726282e-08, No Iterations 3
Time = 1.48

DILUPBiCG:  Solving for T, Initial residual = 0.0087380563, Final residual = 5.0035314e-07, No Iterations 3
DILUPBiCG:  Solving for T, Initial residual = 0.0075773203, Final residual = 2.6833146e-08, No Iterations 3
Time = 1.485

DILUPBiCG:  Solving for T, Initial residual = 0.0087400378, Final residual = 4.8435497e-07, No Iterations 3
DILUPBiCG:  Solving for T, Initial residual = 0.0075521636, Final residual = 1.2587638e-07, No Iterations 3
Time = 1.49

DILUPBiCG:  Solving for T, Initial residual = 0.0087271072, Final residual = 5.0554072e-07, No Iterations 3
DILUPBiCG:  Solving for T, Initial residual = 0.0076638074, Final residual = 1.0450009e-07, No Iterations 3
Time = 1.495

DILUPBiCG:  Solving for T, Initial residual = 0.0087842507, Final residual = 7.7805771e-07, No Iterations 3
DILUPBiCG:  Solving for T, Initial residual = 0.0075479034, Final residual = 2.4435155e-08, No Iterations 3
Time = 1.5

DILUPBiCG:  Solving for T, Initial residual = 0.0087396629, Final residual = 5.6686817e-07, No Iterations 3
DILUPBiCG:  Solving for T, Initial residual = 0.0075721347, Final residual = 4.1316793e-08, No Iterations 3
Time = 1.505

DILUPBiCG:  Solving for T, Initial residual = 0.0087154819, Final residual = 5.4744403e-07, No Iterations 3
DILUPBiCG:  Solving for T, Initial residual = 0.0076346497, Final residual = 5.7870222e-08, No Iterations 3
Time = 1.51

DILUPBiCG:  Solving for T, Initial residual = 0.008765454, Final residual = 5.3146021e-07, No Iterations 3
DILUPBiCG:  Solving for T, Initial residual = 0.0075756816, Final residual = 3.021001e-08, No Iterations 3
Time = 1.515

DILUPBiCG:  Solving for T, Initial residual = 0.0087511942, Final residual = 6.4887817e-07, No Iterations 3
DILUPBiCG:  Solving for T, Initial residual = 0.0076063273, Final residual = 3.2378048e-08, No Iterations 3
Time = 1.52

DILUPBiCG:  Solving for T, Initial residual = 0.0087490146, Final residual = 5.4796976e-07, No Iterations 3
DILUPBiCG:  Solving for T, Initial residual = 0.0075389489, Final residual = 2.4754064e-08, No Iterations 3
Time = 1.525

DILUPBiCG:  Solving for T, Initial residual = 0.0087250724, Final residual = 5.3432871e-07, No Iterations 3
DILUPBiCG:  Solving for T, Initial residual = 0.0075947153, Final residual = 1.2504976e-07, No Iterations 3
Time = 1.53

DILUPBiCG:  Solving for T, Initial residual = 0.0087440741, Final residual = 5.7421451e-07, No Iterations 3
DILUPBiCG:  Solving for T, Initial residual = 0.0075375853, Final residual = 2.346004e-08, No Iterations 3
Time = 1.535

DILUPBiCG:  Solving for T, Initial residual = 0.0087144931, Final residual = 4.611958e-07, No Iterations 3
DILUPBiCG:  Solving for T, Initial residual = 0.0076163467, Final residual = 1.8235242e-07, No Iterations 3
Time = 1.54

DILUPBiCG:  Solving for T, Initial residual = 0.0087473399, Final residual = 4.4358746e-07, No Iterations 3
DILUPBiCG:  Solving for T, Initial residual = 0.0075712514, Final residual = 9.9194253e-07, No Iterations 2
Time = 1.545

DILUPBiCG:  Solving for T, Initial residual = 0.0087443561, Final residual = 5.0156385e-07, No Iterations 3
DILUPBiCG:  Solving for T, Initial residual = 0.0076536121, Final residual = 8.5308923e-08, No Iterations 3
Time = 1.55

DILUPBiCG:  Solving for T, Initial residual = 0.0087738601, Final residual = 5.8294158e-07, No Iterations 3
DILUPBiCG:  Solving for T, Initial residual = 0.0075354116, Final residual = 2.4805641e-08, No Iterations 3
Time = 1.555

DILUPBiCG:  Solving for T, Initial residual = 0.0087028918, Final residual = 5.3464414e-07, No Iterations 3
DILUPBiCG:  Solving for T, Initial residual = 0.0076060991, Final residual = 3.4817659e-08, No Iterations 3
Time = 1.56

DILUPBiCG:  Solving for T, Initial residual = 0.0087195253, Final residual = 5.2706358e-07, No Iterations 3
DILUPBiCG:  Solving for T, Initial residual = 0.00760758, Final residual = 7.5490653e-08, No Iterations 3
Time = 1.565

DILUPBiCG:  Solving for T, Initial residual = 0.0087348264, Final residual = 4.7643656e-07, No Iterations 3
DILUPBiCG:  Solving for T, Initial residual = 0.007538409, Final residual = 2.632061e-08, No Iterations 3
Time = 1.57

DILUPBiCG:  Solving for T, Initial residual = 0.008729457, Final residual = 5.412144e-07, No Iterations 3
DILUPBiCG:  Solving for T, Initial residual = 0.0076452429, Final residual = 9.7360068e-08, No Iterations 3
Time = 1.575

DILUPBiCG:  Solving for T, Initial residual = 0.0087660792, Final residual = 6.8413344e-07, No Iterations 3
DILUPBiCG:  Solving for T, Initial residual = 0.0075631661, Final residual = 3.8101129e-08, No Iterations 3
Time = 1.58

DILUPBiCG:  Solving for T, Initial residual = 0.0087390646, Final residual = 6.1135228e-07, No Iterations 3
DILUPBiCG:  Solving for T, Initial residual = 0.0075959087, Final residual = 7.0443778e-08, No Iterations 3
Time = 1.585

DILUPBiCG:  Solving for T, Initial residual = 0.0087234483, Final residual = 4.2035254e-07, No Iterations 3
DILUPBiCG:  Solving for T, Initial residual = 0.0075449048, Final residual = 2.7266495e-08, No Iterations 3
Time = 1.59

DILUPBiCG:  Solving for T, Initial residual = 0.0087197464, Final residual = 5.0986916e-07, No Iterations 3
DILUPBiCG:  Solving for T, Initial residual = 0.0075839583, Final residual = 9.6511744e-07, No Iterations 2
Time = 1.595

DILUPBiCG:  Solving for T, Initial residual = 0.0087492444, Final residual = 5.7434737e-07, No Iterations 3
DILUPBiCG:  Solving for T, Initial residual = 0.0076098398, Final residual = 1.0734053e-07, No Iterations 3
Time = 1.6

DILUPBiCG:  Solving for T, Initial residual = 0.0087766183, Final residual = 5.5636808e-07, No Iterations 3
DILUPBiCG:  Solving for T, Initial residual = 0.0076392389, Final residual = 9.3828795e-07, No Iterations 2
Time = 1.605

DILUPBiCG:  Solving for T, Initial residual = 0.0087741311, Final residual = 5.6601424e-07, No Iterations 3
DILUPBiCG:  Solving for T, Initial residual = 0.0075751631, Final residual = 3.2559425e-08, No Iterations 3
Time = 1.61

DILUPBiCG:  Solving for T, Initial residual = 0.0087524213, Final residual = 4.7642183e-07, No Iterations 3
DILUPBiCG:  Solving for T, Initial residual = 0.007554495, Final residual = 3.6627783e-08, No Iterations 3
Time = 1.615

DILUPBiCG:  Solving for T, Initial residual = 0.0087259579, Final residual = 6.5426437e-07, No Iterations 3
DILUPBiCG:  Solving for T, Initial residual = 0.0076391874, Final residual = 5.5012684e-07, No Iterations 3
Time = 1.62

DILUPBiCG:  Solving for T, Initial residual = 0.0087555061, Final residual = 5.9797493e-07, No Iterations 3
DILUPBiCG:  Solving for T, Initial residual = 0.0075113537, Final residual = 2.4537286e-08, No Iterations 3
Time = 1.625

DILUPBiCG:  Solving for T, Initial residual = 0.0087299588, Final residual = 5.1233291e-07, No Iterations 3
DILUPBiCG:  Solving for T, Initial residual = 0.00762805, Final residual = 9.7685234e-07, No Iterations 2
Time = 1.63

DILUPBiCG:  Solving for T, Initial residual = 0.0087458993, Final residual = 5.0020942e-07, No Iterations 3
DILUPBiCG:  Solving for T, Initial residual = 0.0075734242, Final residual = 3.5695217e-08, No Iterations 3
Time = 1.635

DILUPBiCG:  Solving for T, Initial residual = 0.0087313398, Final residual = 5.1944574e-07, No Iterations 3
DILUPBiCG:  Solving for T, Initial residual = 0.0076052138, Final residual = 6.6227445e-08, No Iterations 3
Time = 1.64

DILUPBiCG:  Solving for T, Initial residual = 0.0087474369, Final residual = 6.3699355e-07, No Iterations 3
DILUPBiCG:  Solving for T, Initial residual = 0.0076288618, Final residual = 1.5888969e-07, No Iterations 3
Time = 1.645

DILUPBiCG:  Solving for T, Initial residual = 0.0087612992, Final residual = 4.8381456e-07, No Iterations 3
DILUPBiCG:  Solving for T, Initial residual = 0.0075184571, Final residual = 2.9558678e-08, No Iterations 3
Time = 1.65

DILUPBiCG:  Solving for T, Initial residual = 0.0087365814, Final residual = 6.7617479e-07, No Iterations 3
DILUPBiCG:  Solving for T, Initial residual = 0.0076450617, Final residual = 1.0244855e-07, No Iterations 3
Time = 1.655

DILUPBiCG:  Solving for T, Initial residual = 0.0087572098, Final residual = 5.3125863e-07, No Iterations 3
DILUPBiCG:  Solving for T, Initial residual = 0.0075694738, Final residual = 3.6685096e-08, No Iterations 3
Time = 1.66

DILUPBiCG:  Solving for T, Initial residual = 0.0087408547, Final residual = 5.5223624e-07, No Iterations 3
DILUPBiCG:  Solving for T, Initial residual = 0.007572169, Final residual = 6.1226797e-08, No Iterations 3
Time = 1.665

DILUPBiCG:  Solving for T, Initial residual = 0.0087508198, Final residual = 4.6179098e-07, No Iterations 3
DILUPBiCG:  Solving for T, Initial residual = 0.0075896454, Final residual = 2.8155776e-08, No Iterations 3
Time = 1.67

DILUPBiCG:  Solving for T, Initial residual = 0.0087314276, Final residual = 4.8266751e-07, No Iterations 3
DILUPBiCG:  Solving for T, Initial residual = 0.0075304676, Final residual = 3.895095e-07, No Iterations 3
Time = 1.675

DILUPBiCG:  Solving for T, Initial residual = 0.0087214513, Final residual = 5.2665029e-07, No Iterations 3
DILUPBiCG:  Solving for T, Initial residual = 0.0076334464, Final residual = 9.4907831e-08, No Iterations 3
Time = 1.68

DILUPBiCG:  Solving for T, Initial residual = 0.0087660273, Final residual = 6.0324877e-07, No Iterations 3
DILUPBiCG:  Solving for T, Initial residual = 0.0075882956, Final residual = 2.9609104e-08, No Iterations 3
Time = 1.685

DILUPBiCG:  Solving for T, Initial residual = 0.0087625717, Final residual = 4.7688493e-07, No Iterations 3
DILUPBiCG:  Solving for T, Initial residual = 0.0075698615, Final residual = 9.7800273e-08, No Iterations 3
Time = 1.69

DILUPBiCG:  Solving for T, Initial residual = 0.0087478442, Final residual = 5.1654298e-07, No Iterations 3
DILUPBiCG:  Solving for T, Initial residual = 0.0076122625, Final residual = 3.8237186e-08, No Iterations 3
Time = 1.695

DILUPBiCG:  Solving for T, Initial residual = 0.0087558802, Final residual = 5.3108144e-07, No Iterations 3
DILUPBiCG:  Solving for T, Initial residual = 0.0075540482, Final residual = 2.8611123e-08, No Iterations 3
Time = 1.7

DILUPBiCG:  Solving for T, Initial residual = 0.0087442967, Final residual = 6.0828718e-07, No Iterations 3
DILUPBiCG:  Solving for T, Initial residual = 0.0075910045, Final residual = 3.2848329e-08, No Iterations 3
Time = 1.705

DILUPBiCG:  Solving for T, Initial residual = 0.0087310123, Final residual = 4.4677336e-07, No Iterations 3
DILUPBiCG:  Solving for T, Initial residual = 0.0075827134, Final residual = 9.3861411e-08, No Iterations 3
Time = 1.71

DILUPBiCG:  Solving for T, Initial residual = 0.0087389994, Final residual = 5.7724737e-07, No Iterations 3
DILUPBiCG:  Solving for T, Initial residual = 0.0075868717, Final residual = 2.8825453e-08, No Iterations 3
Time = 1.715

DILUPBiCG:  Solving for T, Initial residual = 0.0087469121, Final residual = 6.0350406e-07, No Iterations 3
DILUPBiCG:  Solving for T, Initial residual = 0.0075666015, Final residual = 9.7866497e-07, No Iterations 2
Time = 1.72

DILUPBiCG:  Solving for T, Initial residual = 0.008748291, Final residual = 5.0550725e-07, No Iterations 3
[...]
Time = 4.57

DILUPBiCG:  Solving for T, Initial residual = 0.0087599579, Final residual = 8.7576765e-07, No Iterations 3
DILUPBiCG:  Solving for T, Initial residual = 0.0075437852, Final residual = 9.1737241e-07, No Iterations 2
Time = 4.575

DILUPBiCG:  Solving for T, Initial residual = 0.0087935248, Final residual = 6.8971222e-07, No Iterations 3
DILUPBiCG:  Solving for T, Initial residual = 0.0074023632, Final residual = 9.6348729e-07, No Iterations 2
Time = 4.58

DILUPBiCG:  Solving for T, Initial residual = 0.0087533069, Final residual = 8.6219086e-07, No Iterations 3
DILUPBiCG:  Solving for T, Initial residual = 0.0075248242, Final residual = 9.0161527e-07, No Iterations 2
Time = 4.585

DILUPBiCG:  Solving for T, Initial residual = 0.0087583832, Final residual = 1.3287123e-08, No Iterations 4
DILUPBiCG:  Solving for T, Initial residual = 0.0074663241, Final residual = 9.1498785e-07, No Iterations 2
Time = 4.59

DILUPBiCG:  Solving for T, Initial residual = 0.0087554137, Final residual = 8.5468355e-07, No Iterations 3
DILUPBiCG:  Solving for T, Initial residual = 0.0074397666, Final residual = 9.520827e-07, No Iterations 2
Time = 4.595

DILUPBiCG:  Solving for T, Initial residual = 0.008718564, Final residual = 8.3106259e-07, No Iterations 3
DILUPBiCG:  Solving for T, Initial residual = 0.0073709845, Final residual = 9.421137e-07, No Iterations 2
Time = 4.6

DILUPBiCG:  Solving for T, Initial residual = 0.0087006226, Final residual = 9.2439262e-07, No Iterations 3
DILUPBiCG:  Solving for T, Initial residual = 0.0075231665, Final residual = 9.3989024e-07, No Iterations 2
Time = 4.605

DILUPBiCG:  Solving for T, Initial residual = 0.0087348647, Final residual = 7.0880885e-07, No Iterations 3
DILUPBiCG:  Solving for T, Initial residual = 0.0073467882, Final residual = 9.7979073e-07, No Iterations 2
Time = 4.61

DILUPBiCG:  Solving for T, Initial residual = 0.0086874079, Final residual = 1.3095708e-08, No Iterations 4
DILUPBiCG:  Solving for T, Initial residual = 0.0074470585, Final residual = 8.9767806e-07, No Iterations 2
Time = 4.615

DILUPBiCG:  Solving for T, Initial residual = 0.0086953457, Final residual = 7.6665173e-07, No Iterations 3
DILUPBiCG:  Solving for T, Initial residual = 0.0074306706, Final residual = 9.7871739e-07, No Iterations 2
Time = 4.62

DILUPBiCG:  Solving for T, Initial residual = 0.0087093447, Final residual = 1.349084e-08, No Iterations 4
DILUPBiCG:  Solving for T, Initial residual = 0.0074511169, Final residual = 8.8669601e-07, No Iterations 2
Time = 4.625

DILUPBiCG:  Solving for T, Initial residual = 0.0087154799, Final residual = 8.3746849e-07, No Iterations 3
DILUPBiCG:  Solving for T, Initial residual = 0.0074605049, Final residual = 3.4477167e-08, No Iterations 3
Time = 4.63

DILUPBiCG:  Solving for T, Initial residual = 0.0087059977, Final residual = 1.4121363e-08, No Iterations 4
DILUPBiCG:  Solving for T, Initial residual = 0.0073406804, Final residual = 9.8158846e-07, No Iterations 2
Time = 4.635

DILUPBiCG:  Solving for T, Initial residual = 0.00868382, Final residual = 7.7073509e-07, No Iterations 3
DILUPBiCG:  Solving for T, Initial residual = 0.0074969986, Final residual = 1.9370819e-07, No Iterations 3
Time = 4.64

DILUPBiCG:  Solving for T, Initial residual = 0.0087289176, Final residual = 7.9414914e-07, No Iterations 3
DILUPBiCG:  Solving for T, Initial residual = 0.0074402695, Final residual = 9.3257284e-07, No Iterations 2
Time = 4.645

DILUPBiCG:  Solving for T, Initial residual = 0.0087316313, Final residual = 1.1323833e-08, No Iterations 4
DILUPBiCG:  Solving for T, Initial residual = 0.0073513301, Final residual = 9.7177903e-07, No Iterations 2
Time = 4.65

DILUPBiCG:  Solving for T, Initial residual = 0.0087095846, Final residual = 1.4344727e-08, No Iterations 4
DILUPBiCG:  Solving for T, Initial residual = 0.007477908, Final residual = 8.9103583e-07, No Iterations 2
Time = 4.655

DILUPBiCG:  Solving for T, Initial residual = 0.0087408197, Final residual = 8.5834797e-07, No Iterations 3
DILUPBiCG:  Solving for T, Initial residual = 0.0074646827, Final residual = 9.2607854e-07, No Iterations 2
Time = 4.66

DILUPBiCG:  Solving for T, Initial residual = 0.0087548846, Final residual = 8.1926854e-07, No Iterations 3
DILUPBiCG:  Solving for T, Initial residual = 0.0075626068, Final residual = 4.2031893e-07, No Iterations 3
Time = 4.665

DILUPBiCG:  Solving for T, Initial residual = 0.0087770455, Final residual = 1.283782e-08, No Iterations 4
DILUPBiCG:  Solving for T, Initial residual = 0.0073450419, Final residual = 1.8756543e-08, No Iterations 3
Time = 4.67

DILUPBiCG:  Solving for T, Initial residual = 0.0087086699, Final residual = 9.4551071e-07, No Iterations 3
DILUPBiCG:  Solving for T, Initial residual = 0.0074639441, Final residual = 9.2988516e-07, No Iterations 2
Time = 4.675

DILUPBiCG:  Solving for T, Initial residual = 0.0087228749, Final residual = 8.5174477e-07, No Iterations 3
DILUPBiCG:  Solving for T, Initial residual = 0.0074700305, Final residual = 9.1472447e-07, No Iterations 2
Time = 4.68

DILUPBiCG:  Solving for T, Initial residual = 0.0087390741, Final residual = 9.3013888e-07, No Iterations 3
DILUPBiCG:  Solving for T, Initial residual = 0.0074389402, Final residual = 9.5293214e-07, No Iterations 2
Time = 4.685

DILUPBiCG:  Solving for T, Initial residual = 0.0087265657, Final residual = 1.6051354e-08, No Iterations 4
DILUPBiCG:  Solving for T, Initial residual = 0.0075038561, Final residual = 9.1948426e-08, No Iterations 3
Time = 4.69

DILUPBiCG:  Solving for T, Initial residual = 0.0087377247, Final residual = 1.414535e-08, No Iterations 4
DILUPBiCG:  Solving for T, Initial residual = 0.0073920156, Final residual = 9.9739796e-07, No Iterations 2
Time = 4.695

DILUPBiCG:  Solving for T, Initial residual = 0.0086944603, Final residual = 1.2243739e-08, No Iterations 4
DILUPBiCG:  Solving for T, Initial residual = 0.0073667675, Final residual = 9.4101593e-07, No Iterations 2
Time = 4.7

DILUPBiCG:  Solving for T, Initial residual = 0.0086871806, Final residual = 1.2636763e-08, No Iterations 4
DILUPBiCG:  Solving for T, Initial residual = 0.0074689314, Final residual = 9.2340741e-07, No Iterations 2
Time = 4.705

DILUPBiCG:  Solving for T, Initial residual = 0.0087047857, Final residual = 1.4309971e-08, No Iterations 4
DILUPBiCG:  Solving for T, Initial residual = 0.0073989119, Final residual = 9.2042259e-07, No Iterations 2
Time = 4.71

DILUPBiCG:  Solving for T, Initial residual = 0.0087072629, Final residual = 8.8692707e-07, No Iterations 3
DILUPBiCG:  Solving for T, Initial residual = 0.0074530048, Final residual = 1.0752935e-07, No Iterations 3
Time = 4.715

DILUPBiCG:  Solving for T, Initial residual = 0.0087162137, Final residual = 9.7191579e-07, No Iterations 3
DILUPBiCG:  Solving for T, Initial residual = 0.0074642648, Final residual = 9.5795882e-08, No Iterations 3
Time = 4.72

DILUPBiCG:  Solving for T, Initial residual = 0.0087161502, Final residual = 1.2689155e-08, No Iterations 4
DILUPBiCG:  Solving for T, Initial residual = 0.0073619053, Final residual = 9.8902941e-07, No Iterations 2
Time = 4.725

DILUPBiCG:  Solving for T, Initial residual = 0.0086921469, Final residual = 1.5499271e-08, No Iterations 4
DILUPBiCG:  Solving for T, Initial residual = 0.0074419712, Final residual = 9.0916222e-07, No Iterations 2
Time = 4.73

DILUPBiCG:  Solving for T, Initial residual = 0.0087044251, Final residual = 1.3060188e-08, No Iterations 4
DILUPBiCG:  Solving for T, Initial residual = 0.0073881423, Final residual = 9.2963866e-07, No Iterations 2
Time = 4.735

DILUPBiCG:  Solving for T, Initial residual = 0.0086945151, Final residual = 1.4732745e-08, No Iterations 4
DILUPBiCG:  Solving for T, Initial residual = 0.0075122052, Final residual = 8.7103232e-07, No Iterations 2
Time = 4.74

DILUPBiCG:  Solving for T, Initial residual = 0.0087332569, Final residual = 8.0604588e-07, No Iterations 3
DILUPBiCG:  Solving for T, Initial residual = 0.0073478947, Final residual = 9.3538563e-07, No Iterations 2
Time = 4.745

DILUPBiCG:  Solving for T, Initial residual = 0.0086998646, Final residual = 1.3912052e-08, No Iterations 4
DILUPBiCG:  Solving for T, Initial residual = 0.0075012319, Final residual = 9.1495434e-07, No Iterations 2
Time = 4.75

DILUPBiCG:  Solving for T, Initial residual = 0.0087360535, Final residual = 1.3480447e-08, No Iterations 4
DILUPBiCG:  Solving for T, Initial residual = 0.0073688621, Final residual = 1.894575e-08, No Iterations 3
Time = 4.755

DILUPBiCG:  Solving for T, Initial residual = 0.0087082875, Final residual = 1.2105599e-08, No Iterations 4
DILUPBiCG:  Solving for T, Initial residual = 0.0074653471, Final residual = 8.8199166e-07, No Iterations 2
Time = 4.76

DILUPBiCG:  Solving for T, Initial residual = 0.0087244176, Final residual = 8.3143549e-07, No Iterations 3
DILUPBiCG:  Solving for T, Initial residual = 0.0074608583, Final residual = 9.4195955e-07, No Iterations 2
Time = 4.765

DILUPBiCG:  Solving for T, Initial residual = 0.0087315641, Final residual = 9.0026551e-07, No Iterations 3
DILUPBiCG:  Solving for T, Initial residual = 0.0074267408, Final residual = 9.976518e-07, No Iterations 2
Time = 4.77

DILUPBiCG:  Solving for T, Initial residual = 0.0087251261, Final residual = 9.001119e-07, No Iterations 3
DILUPBiCG:  Solving for T, Initial residual = 0.0074698122, Final residual = 9.4543161e-07, No Iterations 2
Time = 4.775

DILUPBiCG:  Solving for T, Initial residual = 0.0087385133, Final residual = 1.2638445e-08, No Iterations 4
DILUPBiCG:  Solving for T, Initial residual = 0.0074412491, Final residual = 9.406627e-07, No Iterations 2
Time = 4.78

DILUPBiCG:  Solving for T, Initial residual = 0.0087297893, Final residual = 1.3098614e-08, No Iterations 4
DILUPBiCG:  Solving for T, Initial residual = 0.0074851467, Final residual = 9.0397876e-07, No Iterations 2
Time = 4.785

DILUPBiCG:  Solving for T, Initial residual = 0.0087258674, Final residual = 1.2895554e-08, No Iterations 4
DILUPBiCG:  Solving for T, Initial residual = 0.0073963193, Final residual = 9.4143652e-07, No Iterations 2
Time = 4.79

DILUPBiCG:  Solving for T, Initial residual = 0.0086976542, Final residual = 1.3813707e-08, No Iterations 4
DILUPBiCG:  Solving for T, Initial residual = 0.0074370468, Final residual = 9.771827e-07, No Iterations 2
Time = 4.795

DILUPBiCG:  Solving for T, Initial residual = 0.0086949696, Final residual = 1.2586007e-08, No Iterations 4
DILUPBiCG:  Solving for T, Initial residual = 0.0074071237, Final residual = 9.7174852e-07, No Iterations 2
Time = 4.8

DILUPBiCG:  Solving for T, Initial residual = 0.0086958842, Final residual = 1.2854247e-08, No Iterations 4
DILUPBiCG:  Solving for T, Initial residual = 0.0074422314, Final residual = 9.2088618e-07, No Iterations 2
Time = 4.805

DILUPBiCG:  Solving for T, Initial residual = 0.0086919464, Final residual = 1.4093628e-08, No Iterations 4
DILUPBiCG:  Solving for T, Initial residual = 0.007375496, Final residual = 9.3849524e-07, No Iterations 2
Time = 4.81

DILUPBiCG:  Solving for T, Initial residual = 0.0086794053, Final residual = 1.2601009e-08, No Iterations 4
DILUPBiCG:  Solving for T, Initial residual = 0.0073676695, Final residual = 9.6297472e-07, No Iterations 2
Time = 4.815

DILUPBiCG:  Solving for T, Initial residual = 0.0086735081, Final residual = 1.2730163e-08, No Iterations 4
DILUPBiCG:  Solving for T, Initial residual = 0.007464109, Final residual = 1.9477329e-07, No Iterations 3
Time = 4.82

DILUPBiCG:  Solving for T, Initial residual = 0.0087012105, Final residual = 1.3526684e-08, No Iterations 4
DILUPBiCG:  Solving for T, Initial residual = 0.0074159872, Final residual = 9.2922868e-07, No Iterations 2
Time = 4.825

DILUPBiCG:  Solving for T, Initial residual = 0.0087004259, Final residual = 1.3322902e-08, No Iterations 4
DILUPBiCG:  Solving for T, Initial residual = 0.0074562605, Final residual = 8.5811267e-07, No Iterations 2
Time = 4.83

DILUPBiCG:  Solving for T, Initial residual = 0.0087115813, Final residual = 1.352337e-08, No Iterations 4
DILUPBiCG:  Solving for T, Initial residual = 0.0074339802, Final residual = 9.0960455e-07, No Iterations 2
Time = 4.835

DILUPBiCG:  Solving for T, Initial residual = 0.0087139524, Final residual = 1.3210248e-08, No Iterations 4
DILUPBiCG:  Solving for T, Initial residual = 0.0073860057, Final residual = 9.3505829e-07, No Iterations 2
Time = 4.84

DILUPBiCG:  Solving for T, Initial residual = 0.0086906658, Final residual = 9.9970667e-07, No Iterations 3
DILUPBiCG:  Solving for T, Initial residual = 0.0074687653, Final residual = 9.1518008e-07, No Iterations 2
Time = 4.845

DILUPBiCG:  Solving for T, Initial residual = 0.0087164478, Final residual = 1.2386433e-08, No Iterations 4
DILUPBiCG:  Solving for T, Initial residual = 0.0073896796, Final residual = 9.699917e-07, No Iterations 2
Time = 4.85

DILUPBiCG:  Solving for T, Initial residual = 0.0087156191, Final residual = 1.3072211e-08, No Iterations 4
DILUPBiCG:  Solving for T, Initial residual = 0.0074620957, Final residual = 9.9802561e-07, No Iterations 2
Time = 4.855

DILUPBiCG:  Solving for T, Initial residual = 0.0087338926, Final residual = 1.5141143e-08, No Iterations 4
DILUPBiCG:  Solving for T, Initial residual = 0.0074118496, Final residual = 9.4198865e-07, No Iterations 2
Time = 4.86

DILUPBiCG:  Solving for T, Initial residual = 0.0087234902, Final residual = 1.6997959e-08, No Iterations 4
DILUPBiCG:  Solving for T, Initial residual = 0.007453406, Final residual = 9.0144482e-07, No Iterations 2
Time = 4.865

DILUPBiCG:  Solving for T, Initial residual = 0.0087375413, Final residual = 1.4280419e-08, No Iterations 4
DILUPBiCG:  Solving for T, Initial residual = 0.0075087922, Final residual = 8.8507792e-07, No Iterations 2
Time = 4.87

DILUPBiCG:  Solving for T, Initial residual = 0.0087589139, Final residual = 1.4550521e-08, No Iterations 4
DILUPBiCG:  Solving for T, Initial residual = 0.0074381254, Final residual = 9.0765078e-07, No Iterations 2
Time = 4.875

DILUPBiCG:  Solving for T, Initial residual = 0.0087490388, Final residual = 1.3299332e-08, No Iterations 4
DILUPBiCG:  Solving for T, Initial residual = 0.0074085492, Final residual = 9.367989e-07, No Iterations 2
Time = 4.88

DILUPBiCG:  Solving for T, Initial residual = 0.0087122351, Final residual = 1.1173878e-08, No Iterations 4
DILUPBiCG:  Solving for T, Initial residual = 0.007449957, Final residual = 1.0370155e-07, No Iterations 3
Time = 4.885

DILUPBiCG:  Solving for T, Initial residual = 0.0087166342, Final residual = 1.2286714e-08, No Iterations 4
DILUPBiCG:  Solving for T, Initial residual = 0.0074340233, Final residual = 8.7953949e-07, No Iterations 2
Time = 4.89

DILUPBiCG:  Solving for T, Initial residual = 0.0087153945, Final residual = 1.2724471e-08, No Iterations 4
DILUPBiCG:  Solving for T, Initial residual = 0.0074207485, Final residual = 9.1584136e-07, No Iterations 2
Time = 4.895

DILUPBiCG:  Solving for T, Initial residual = 0.0087076197, Final residual = 1.5370223e-08, No Iterations 4
DILUPBiCG:  Solving for T, Initial residual = 0.0074339974, Final residual = 9.833609e-07, No Iterations 2
Time = 4.9

DILUPBiCG:  Solving for T, Initial residual = 0.0087000967, Final residual = 1.56119e-08, No Iterations 4
DILUPBiCG:  Solving for T, Initial residual = 0.007354237, Final residual = 9.7025267e-07, No Iterations 2
Time = 4.905

DILUPBiCG:  Solving for T, Initial residual = 0.0086821421, Final residual = 1.4647752e-08, No Iterations 4
DILUPBiCG:  Solving for T, Initial residual = 0.0074540556, Final residual = 1.4613175e-07, No Iterations 3
Time = 4.91

DILUPBiCG:  Solving for T, Initial residual = 0.0087061756, Final residual = 1.6972189e-08, No Iterations 4
DILUPBiCG:  Solving for T, Initial residual = 0.0073785546, Final residual = 9.6858718e-07, No Iterations 2
Time = 4.915

DILUPBiCG:  Solving for T, Initial residual = 0.0086881691, Final residual = 1.360858e-08, No Iterations 4
DILUPBiCG:  Solving for T, Initial residual = 0.0073858453, Final residual = 9.1740674e-07, No Iterations 2
Time = 4.92

DILUPBiCG:  Solving for T, Initial residual = 0.0086842747, Final residual = 1.5283031e-08, No Iterations 4
DILUPBiCG:  Solving for T, Initial residual = 0.0074329882, Final residual = 9.8043211e-07, No Iterations 2
Time = 4.925

DILUPBiCG:  Solving for T, Initial residual = 0.0086952403, Final residual = 1.4248261e-08, No Iterations 4
DILUPBiCG:  Solving for T, Initial residual = 0.0073783981, Final residual = 9.3788485e-07, No Iterations 2
Time = 4.93

DILUPBiCG:  Solving for T, Initial residual = 0.0086846578, Final residual = 1.4259286e-08, No Iterations 4
DILUPBiCG:  Solving for T, Initial residual = 0.0073691513, Final residual = 9.6748541e-07, No Iterations 2
Time = 4.935

DILUPBiCG:  Solving for T, Initial residual = 0.0086807648, Final residual = 1.4685223e-08, No Iterations 4
DILUPBiCG:  Solving for T, Initial residual = 0.007454903, Final residual = 9.9381896e-07, No Iterations 2
Time = 4.94

DILUPBiCG:  Solving for T, Initial residual = 0.0087030066, Final residual = 1.499512e-08, No Iterations 4
DILUPBiCG:  Solving for T, Initial residual = 0.0073643897, Final residual = 8.8849092e-07, No Iterations 2
Time = 4.945

DILUPBiCG:  Solving for T, Initial residual = 0.0086908676, Final residual = 1.2468881e-08, No Iterations 4
DILUPBiCG:  Solving for T, Initial residual = 0.0073902052, Final residual = 9.0398811e-07, No Iterations 2
Time = 4.95

DILUPBiCG:  Solving for T, Initial residual = 0.0086813242, Final residual = 1.3738841e-08, No Iterations 4
DILUPBiCG:  Solving for T, Initial residual = 0.0074169891, Final residual = 9.5403285e-08, No Iterations 3
Time = 4.955

DILUPBiCG:  Solving for T, Initial residual = 0.0087042553, Final residual = 1.4651538e-08, No Iterations 4
DILUPBiCG:  Solving for T, Initial residual = 0.0073882444, Final residual = 8.7224925e-07, No Iterations 2
Time = 4.96

DILUPBiCG:  Solving for T, Initial residual = 0.0087124202, Final residual = 1.3982536e-08, No Iterations 4
DILUPBiCG:  Solving for T, Initial residual = 0.0074332098, Final residual = 9.5396322e-07, No Iterations 2
Time = 4.965

DILUPBiCG:  Solving for T, Initial residual = 0.0087201886, Final residual = 1.2968551e-08, No Iterations 4
DILUPBiCG:  Solving for T, Initial residual = 0.0074026487, Final residual = 9.3420336e-07, No Iterations 2
Time = 4.97

DILUPBiCG:  Solving for T, Initial residual = 0.0087165389, Final residual = 1.3036991e-08, No Iterations 4
DILUPBiCG:  Solving for T, Initial residual = 0.007424346, Final residual = 9.1093902e-07, No Iterations 2
Time = 4.975

DILUPBiCG:  Solving for T, Initial residual = 0.0087138245, Final residual = 1.3370466e-08, No Iterations 4
DILUPBiCG:  Solving for T, Initial residual = 0.0074225976, Final residual = 3.9532043e-10, No Iterations 4
Time = 4.98

DILUPBiCG:  Solving for T, Initial residual = 0.0087169879, Final residual = 1.3339149e-08, No Iterations 4
DILUPBiCG:  Solving for T, Initial residual = 0.0073861899, Final residual = 9.8381483e-07, No Iterations 2
Time = 4.985

DILUPBiCG:  Solving for T, Initial residual = 0.0086881966, Final residual = 1.4513679e-08, No Iterations 4
DILUPBiCG:  Solving for T, Initial residual = 0.0074050046, Final residual = 7.9413097e-08, No Iterations 3
Time = 4.99

DILUPBiCG:  Solving for T, Initial residual = 0.0086929815, Final residual = 1.7217653e-08, No Iterations 4
DILUPBiCG:  Solving for T, Initial residual = 0.007389772, Final residual = 8.8968158e-07, No Iterations 2
Time = 4.995

DILUPBiCG:  Solving for T, Initial residual = 0.0086979203, Final residual = 1.2430924e-08, No Iterations 4
DILUPBiCG:  Solving for T, Initial residual = 0.0073930027, Final residual = 9.187265e-07, No Iterations 2
Time = 5

DILUPBiCG:  Solving for T, Initial residual = 0.0086886259, Final residual = 9.5843711e-07, No Iterations 3
DILUPBiCG:  Solving for T, Initial residual = 0.0073736656, Final residual = 2.686938e-07, No Iterations 3
End

