/*---------------------------------------------------------------------------*\
  =========                 |
  \\      /  F ield         | OpenFOAM: The Open Source CFD Toolbox
   \\    /   O peration     | Website:  https://openfoam.org
    \\  /    A nd           | Version:  9
     \\/     M anipulation  |
\*---------------------------------------------------------------------------*/
Build  : 9-710dba47639b
Exec   : scalarTransportFoam
Date   : May 10 2024
Time   : 10:56:26
Host   : "dyfluid-virtual-machine"
PID    : 960729
I/O    : uncollated
Case   : /home/dyfluid/case/one-sigrun
nProcs : 1
sigFpe : Enabling floating point exception trapping (FOAM_SIGFPE).
fileModificationChecking : Monitoring run-time modified files using timeStampMaster (fileModificationSkew 10)
allowSystemOperations : Allowing user-supplied system call operations

// * * * * * * * * * * * * * * * * * * * * * * * * * * * * * * * * * * * * * //
Create time

Create mesh for time = 0


SIMPLE: No convergence criteria found

Reading field T

Reading field U

Reading transportProperties

Reading diffusivity DT

Reading/calculating face flux field phi

No fvModels present
No fvConstraints present

Calculating scalar transport

Courant Number mean: 0.6 max: 0.6
Time = 0.005

DILUPBiCG:  Solving for T, Initial residual = 1, Final residual = 5.3600985e-07, No Iterations 4
DILUPBiCG:  Solving for T, Initial residual = 2.0173078e-05, Final residual = 4.2634473e-07, No Iterations 1
Time = 0.01

DILUPBiCG:  Solving for T, Initial residual = 0.20532451, Final residual = 2.7700678e-08, No Iterations 4
DILUPBiCG:  Solving for T, Initial residual = 1.5364663e-05, Final residual = 4.2682156e-07, No Iterations 1
Time = 0.015

DILUPBiCG:  Solving for T, Initial residual = 0.11584885, Final residual = 6.1434674e-07, No Iterations 3
DILUPBiCG:  Solving for T, Initial residual = 1.0157812e-05, Final residual = 5.1419374e-07, No Iterations 1
Time = 0.02

DILUPBiCG:  Solving for T, Initial residual = 0.080852177, Final residual = 8.9539275e-07, No Iterations 4
DILUPBiCG:  Solving for T, Initial residual = 0.0061831484, Final residual = 3.8031261e-08, No Iterations 3
Time = 0.025

DILUPBiCG:  Solving for T, Initial residual = 0.062156467, Final residual = 6.5469738e-07, No Iterations 3
DILUPBiCG:  Solving for T, Initial residual = 0.021794371, Final residual = 5.5643435e-08, No Iterations 3
Time = 0.03

DILUPBiCG:  Solving for T, Initial residual = 0.050574443, Final residual = 8.3097905e-09, No Iterations 4
DILUPBiCG:  Solving for T, Initial residual = 0.010807794, Final residual = 3.4642125e-08, No Iterations 3
Time = 0.035

DILUPBiCG:  Solving for T, Initial residual = 0.042640009, Final residual = 7.8411404e-07, No Iterations 3
DILUPBiCG:  Solving for T, Initial residual = 0.0059554587, Final residual = 2.5200389e-08, No Iterations 3
Time = 0.04

DILUPBiCG:  Solving for T, Initial residual = 0.03691922, Final residual = 2.9063762e-07, No Iterations 3
DILUPBiCG:  Solving for T, Initial residual = 0.0034054799, Final residual = 8.8883362e-07, No Iterations 2
Time = 0.045

DILUPBiCG:  Solving for T, Initial residual = 0.032582482, Final residual = 1.796986e-07, No Iterations 3
DILUPBiCG:  Solving for T, Initial residual = 0.0029131905, Final residual = 9.1805747e-07, No Iterations 2
Time = 0.05

DILUPBiCG:  Solving for T, Initial residual = 0.029144837, Final residual = 1.5572795e-07, No Iterations 3
DILUPBiCG:  Solving for T, Initial residual = 0.0033428422, Final residual = 9.4227796e-07, No Iterations 2
Time = 0.055

DILUPBiCG:  Solving for T, Initial residual = 0.026408813, Final residual = 1.4631788e-07, No Iterations 3
DILUPBiCG:  Solving for T, Initial residual = 0.0019590944, Final residual = 5.1396844e-07, No Iterations 2
Time = 0.06

DILUPBiCG:  Solving for T, Initial residual = 0.024156046, Final residual = 1.2415155e-07, No Iterations 3
DILUPBiCG:  Solving for T, Initial residual = 0.0011134699, Final residual = 3.175682e-07, No Iterations 2
Time = 0.065

DILUPBiCG:  Solving for T, Initial residual = 0.022251883, Final residual = 1.2423423e-07, No Iterations 3
DILUPBiCG:  Solving for T, Initial residual = 0.0012326073, Final residual = 7.2262893e-07, No Iterations 2
Time = 0.07

DILUPBiCG:  Solving for T, Initial residual = 0.020648507, Final residual = 1.097691e-07, No Iterations 3
DILUPBiCG:  Solving for T, Initial residual = 0.00076786859, Final residual = 3.3307118e-07, No Iterations 2
Time = 0.075

DILUPBiCG:  Solving for T, Initial residual = 0.019260366, Final residual = 1.0613101e-07, No Iterations 3
DILUPBiCG:  Solving for T, Initial residual = 0.00052976803, Final residual = 1.796014e-07, No Iterations 2
Time = 0.08

DILUPBiCG:  Solving for T, Initial residual = 0.018048273, Final residual = 1.07403e-07, No Iterations 3
DILUPBiCG:  Solving for T, Initial residual = 0.00090795639, Final residual = 1.4278497e-08, No Iterations 3
Time = 0.085

DILUPBiCG:  Solving for T, Initial residual = 0.016989077, Final residual = 9.9660886e-08, No Iterations 3
DILUPBiCG:  Solving for T, Initial residual = 0.00065489393, Final residual = 3.3737139e-07, No Iterations 2
Time = 0.09

DILUPBiCG:  Solving for T, Initial residual = 0.016057716, Final residual = 9.2987017e-08, No Iterations 3
DILUPBiCG:  Solving for T, Initial residual = 0.0004618509, Final residual = 2.0170757e-07, No Iterations 2
Time = 0.095

DILUPBiCG:  Solving for T, Initial residual = 0.015221442, Final residual = 9.6034488e-08, No Iterations 3
DILUPBiCG:  Solving for T, Initial residual = 0.0006051315, Final residual = 6.6907025e-07, No Iterations 2
Time = 0.1

DILUPBiCG:  Solving for T, Initial residual = 0.014467039, Final residual = 8.4454896e-08, No Iterations 3
DILUPBiCG:  Solving for T, Initial residual = 0.00050236045, Final residual = 7.2626855e-07, No Iterations 2
Time = 0.105

DILUPBiCG:  Solving for T, Initial residual = 0.013801045, Final residual = 7.7893967e-08, No Iterations 3
DILUPBiCG:  Solving for T, Initial residual = 0.00035555114, Final residual = 1.6787907e-07, No Iterations 2
Time = 0.11

DILUPBiCG:  Solving for T, Initial residual = 0.013186515, Final residual = 7.9690865e-08, No Iterations 3
DILUPBiCG:  Solving for T, Initial residual = 0.00034444741, Final residual = 8.4853575e-09, No Iterations 3
Time = 0.115

DILUPBiCG:  Solving for T, Initial residual = 0.012620241, Final residual = 8.1194357e-08, No Iterations 3
DILUPBiCG:  Solving for T, Initial residual = 0.0003936685, Final residual = 7.9349818e-07, No Iterations 2
Time = 0.12

DILUPBiCG:  Solving for T, Initial residual = 0.01210854, Final residual = 7.295644e-08, No Iterations 3
DILUPBiCG:  Solving for T, Initial residual = 0.00028391181, Final residual = 1.7378476e-07, No Iterations 2
Time = 0.125

DILUPBiCG:  Solving for T, Initial residual = 0.011639872, Final residual = 7.2994777e-08, No Iterations 3
DILUPBiCG:  Solving for T, Initial residual = 0.00019655514, Final residual = 1.4719769e-07, No Iterations 2
Time = 0.13

DILUPBiCG:  Solving for T, Initial residual = 0.011203595, Final residual = 6.6999483e-08, No Iterations 3
DILUPBiCG:  Solving for T, Initial residual = 0.00031227208, Final residual = 5.0619581e-07, No Iterations 2
Time = 0.135

DILUPBiCG:  Solving for T, Initial residual = 0.010799025, Final residual = 6.2396207e-08, No Iterations 3
DILUPBiCG:  Solving for T, Initial residual = 0.00022681218, Final residual = 2.1294375e-07, No Iterations 2
Time = 0.14

DILUPBiCG:  Solving for T, Initial residual = 0.010432423, Final residual = 6.7507252e-08, No Iterations 3
DILUPBiCG:  Solving for T, Initial residual = 0.00015836636, Final residual = 8.2245425e-08, No Iterations 2
Time = 0.145

DILUPBiCG:  Solving for T, Initial residual = 0.01008577, Final residual = 6.5929293e-08, No Iterations 3
DILUPBiCG:  Solving for T, Initial residual = 0.00025592246, Final residual = 5.3188173e-09, No Iterations 3
Time = 0.15

DILUPBiCG:  Solving for T, Initial residual = 0.0097571299, Final residual = 6.3312582e-08, No Iterations 3
DILUPBiCG:  Solving for T, Initial residual = 0.00018817414, Final residual = 5.6394112e-07, No Iterations 2
Time = 0.155

DILUPBiCG:  Solving for T, Initial residual = 0.0094557398, Final residual = 5.7556564e-08, No Iterations 3
DILUPBiCG:  Solving for T, Initial residual = 0.00013528915, Final residual = 8.8959977e-08, No Iterations 2
Time = 0.16

DILUPBiCG:  Solving for T, Initial residual = 0.0091739117, Final residual = 5.8921284e-08, No Iterations 3
DILUPBiCG:  Solving for T, Initial residual = 0.00020118625, Final residual = 9.5590807e-07, No Iterations 2
Time = 0.165

DILUPBiCG:  Solving for T, Initial residual = 0.0089055705, Final residual = 5.4539859e-08, No Iterations 3
DILUPBiCG:  Solving for T, Initial residual = 0.00017158559, Final residual = 4.7987903e-07, No Iterations 2
Time = 0.17

DILUPBiCG:  Solving for T, Initial residual = 0.0086517532, Final residual = 5.0064006e-08, No Iterations 3
DILUPBiCG:  Solving for T, Initial residual = 0.00012615007, Final residual = 1.0870703e-07, No Iterations 2
Time = 0.175

DILUPBiCG:  Solving for T, Initial residual = 0.0084191661, Final residual = 5.3099797e-08, No Iterations 3
DILUPBiCG:  Solving for T, Initial residual = 0.00012501372, Final residual = 3.4698038e-07, No Iterations 2
Time = 0.18

DILUPBiCG:  Solving for T, Initial residual = 0.0081961909, Final residual = 5.056352e-08, No Iterations 3
DILUPBiCG:  Solving for T, Initial residual = 0.00015421407, Final residual = 4.6829699e-09, No Iterations 3
Time = 0.185

DILUPBiCG:  Solving for T, Initial residual = 0.0079815193, Final residual = 4.9202177e-08, No Iterations 3
DILUPBiCG:  Solving for T, Initial residual = 0.00011485914, Final residual = 3.9871136e-07, No Iterations 2
Time = 0.19

DILUPBiCG:  Solving for T, Initial residual = 0.0077820849, Final residual = 4.6557544e-08, No Iterations 3
DILUPBiCG:  Solving for T, Initial residual = 8.2091175e-05, Final residual = 7.6349248e-08, No Iterations 2
Time = 0.195

DILUPBiCG:  Solving for T, Initial residual = 0.0075938028, Final residual = 4.5554083e-08, No Iterations 3
DILUPBiCG:  Solving for T, Initial residual = 0.00013714593, Final residual = 4.2281939e-07, No Iterations 2
Time = 0.2

DILUPBiCG:  Solving for T, Initial residual = 0.0074122536, Final residual = 4.3676868e-08, No Iterations 3
DILUPBiCG:  Solving for T, Initial residual = 0.00010297668, Final residual = 2.1732234e-07, No Iterations 2
Time = 0.205

DILUPBiCG:  Solving for T, Initial residual = 0.0072384922, Final residual = 4.2039751e-08, No Iterations 3
DILUPBiCG:  Solving for T, Initial residual = 7.5462708e-05, Final residual = 4.9681238e-08, No Iterations 2
Time = 0.21

DILUPBiCG:  Solving for T, Initial residual = 0.0070778153, Final residual = 4.4116114e-08, No Iterations 3
DILUPBiCG:  Solving for T, Initial residual = 0.00012471108, Final residual = 7.1664487e-07, No Iterations 2
Time = 0.215

DILUPBiCG:  Solving for T, Initial residual = 0.0069212497, Final residual = 4.1849735e-08, No Iterations 3
DILUPBiCG:  Solving for T, Initial residual = 9.5298537e-05, Final residual = 2.3695993e-07, No Iterations 2
Time = 0.22

DILUPBiCG:  Solving for T, Initial residual = 0.0067692978, Final residual = 4.2713962e-08, No Iterations 3
DILUPBiCG:  Solving for T, Initial residual = 7.0969582e-05, Final residual = 5.9568854e-08, No Iterations 2
Time = 0.225

DILUPBiCG:  Solving for T, Initial residual = 0.0066265352, Final residual = 3.7271186e-08, No Iterations 3
DILUPBiCG:  Solving for T, Initial residual = 9.2980695e-05, Final residual = 1.301114e-07, No Iterations 2
Time = 0.23

DILUPBiCG:  Solving for T, Initial residual = 0.0064908894, Final residual = 4.0261316e-08, No Iterations 3
DILUPBiCG:  Solving for T, Initial residual = 9.08848e-05, Final residual = 6.5111175e-07, No Iterations 2
Time = 0.235

DILUPBiCG:  Solving for T, Initial residual = 0.0063589832, Final residual = 3.9149452e-08, No Iterations 3
DILUPBiCG:  Solving for T, Initial residual = 6.8576522e-05, Final residual = 6.8190291e-08, No Iterations 2
Time = 0.24

DILUPBiCG:  Solving for T, Initial residual = 0.0062313755, Final residual = 3.7610185e-08, No Iterations 3
DILUPBiCG:  Solving for T, Initial residual = 5.7642028e-05, Final residual = 1.5601226e-07, No Iterations 2
Time = 0.245

DILUPBiCG:  Solving for T, Initial residual = 0.0061126432, Final residual = 3.8671633e-08, No Iterations 3
DILUPBiCG:  Solving for T, Initial residual = 8.5093407e-05, Final residual = 4.756772e-07, No Iterations 2
Time = 0.25

DILUPBiCG:  Solving for T, Initial residual = 0.0059965957, Final residual = 3.3983141e-08, No Iterations 3
DILUPBiCG:  Solving for T, Initial residual = 6.5282466e-05, Final residual = 8.4723989e-08, No Iterations 2
Time = 0.255

DILUPBiCG:  Solving for T, Initial residual = 0.0058829575, Final residual = 3.5114285e-08, No Iterations 3
DILUPBiCG:  Solving for T, Initial residual = 4.8810514e-05, Final residual = 3.3460747e-08, No Iterations 2
Time = 0.26

DILUPBiCG:  Solving for T, Initial residual = 0.00577502, Final residual = 3.5829587e-08, No Iterations 3
DILUPBiCG:  Solving for T, Initial residual = 8.0429678e-05, Final residual = 3.695755e-07, No Iterations 2
Time = 0.265

DILUPBiCG:  Solving for T, Initial residual = 0.0056725938, Final residual = 3.605073e-08, No Iterations 3
DILUPBiCG:  Solving for T, Initial residual = 6.2947627e-05, Final residual = 1.7571343e-09, No Iterations 3
Time = 0.27

DILUPBiCG:  Solving for T, Initial residual = 0.0055720579, Final residual = 3.7420608e-08, No Iterations 3
DILUPBiCG:  Solving for T, Initial residual = 4.7993318e-05, Final residual = 5.9071064e-08, No Iterations 2
Time = 0.275

DILUPBiCG:  Solving for T, Initial residual = 0.0054733543, Final residual = 5.1676302e-08, No Iterations 3
DILUPBiCG:  Solving for T, Initial residual = 7.517817e-05, Final residual = 1.2309249e-07, No Iterations 2
Time = 0.28

DILUPBiCG:  Solving for T, Initial residual = 0.0053808091, Final residual = 9.5755813e-08, No Iterations 3
DILUPBiCG:  Solving for T, Initial residual = 6.2687281e-05, Final residual = 1.2925073e-07, No Iterations 2
Time = 0.285

DILUPBiCG:  Solving for T, Initial residual = 0.005290502, Final residual = 3.1869655e-08, No Iterations 3
DILUPBiCG:  Solving for T, Initial residual = 4.8278181e-05, Final residual = 5.1704477e-08, No Iterations 2
Time = 0.29

DILUPBiCG:  Solving for T, Initial residual = 0.0052014107, Final residual = 3.1611561e-08, No Iterations 3
DILUPBiCG:  Solving for T, Initial residual = 5.0831571e-05, Final residual = 4.9943842e-07, No Iterations 2
Time = 0.295

DILUPBiCG:  Solving for T, Initial residual = 0.005115788, Final residual = 3.1505348e-08, No Iterations 3
DILUPBiCG:  Solving for T, Initial residual = 5.9449534e-05, Final residual = 8.2902197e-08, No Iterations 2
Time = 0.3

DILUPBiCG:  Solving for T, Initial residual = 0.0050344736, Final residual = 2.8574149e-08, No Iterations 3
DILUPBiCG:  Solving for T, Initial residual = 4.594617e-05, Final residual = 6.3262993e-08, No Iterations 2
Time = 0.305

DILUPBiCG:  Solving for T, Initial residual = 0.0049542103, Final residual = 2.8587844e-08, No Iterations 3
DILUPBiCG:  Solving for T, Initial residual = 3.4921974e-05, Final residual = 7.127821e-07, No Iterations 2
Time = 0.31

DILUPBiCG:  Solving for T, Initial residual = 0.0048745764, Final residual = 2.8003619e-08, No Iterations 3
DILUPBiCG:  Solving for T, Initial residual = 5.6420891e-05, Final residual = 2.0187676e-09, No Iterations 3
Time = 0.315

DILUPBiCG:  Solving for T, Initial residual = 0.0047997574, Final residual = 2.773373e-08, No Iterations 3
DILUPBiCG:  Solving for T, Initial residual = 4.4413384e-05, Final residual = 6.8977145e-08, No Iterations 2
Time = 0.32

DILUPBiCG:  Solving for T, Initial residual = 0.0047265906, Final residual = 2.8247288e-08, No Iterations 3
DILUPBiCG:  Solving for T, Initial residual = 3.3872126e-05, Final residual = 2.6834931e-08, No Iterations 2
Time = 0.325

DILUPBiCG:  Solving for T, Initial residual = 0.0046540112, Final residual = 2.7983764e-08, No Iterations 3
DILUPBiCG:  Solving for T, Initial residual = 5.3577122e-05, Final residual = 7.0334446e-08, No Iterations 2
Time = 0.33

DILUPBiCG:  Solving for T, Initial residual = 0.0045836849, Final residual = 2.7551859e-08, No Iterations 3
DILUPBiCG:  Solving for T, Initial residual = 4.2632765e-05, Final residual = 4.4686303e-08, No Iterations 2
Time = 0.335

DILUPBiCG:  Solving for T, Initial residual = 0.0045169821, Final residual = 2.5830981e-08, No Iterations 3
DILUPBiCG:  Solving for T, Initial residual = 3.2765322e-05, Final residual = 2.969914e-08, No Iterations 2
Time = 0.34

DILUPBiCG:  Solving for T, Initial residual = 0.0044513484, Final residual = 2.6891138e-08, No Iterations 3
DILUPBiCG:  Solving for T, Initial residual = 4.2232342e-05, Final residual = 1.1067071e-07, No Iterations 2
Time = 0.345

DILUPBiCG:  Solving for T, Initial residual = 0.00438586, Final residual = 2.3935283e-08, No Iterations 3
DILUPBiCG:  Solving for T, Initial residual = 4.3016805e-05, Final residual = 5.8908806e-08, No Iterations 2
Time = 0.35

DILUPBiCG:  Solving for T, Initial residual = 0.0043236777, Final residual = 2.5274802e-08, No Iterations 3
DILUPBiCG:  Solving for T, Initial residual = 3.3152067e-05, Final residual = 3.2688062e-08, No Iterations 2
Time = 0.355

DILUPBiCG:  Solving for T, Initial residual = 0.0042630757, Final residual = 2.4792112e-08, No Iterations 3
DILUPBiCG:  Solving for T, Initial residual = 2.7718258e-05, Final residual = 3.5499022e-08, No Iterations 2
Time = 0.36

DILUPBiCG:  Solving for T, Initial residual = 0.0042027699, Final residual = 2.5019199e-08, No Iterations 3
DILUPBiCG:  Solving for T, Initial residual = 4.1310934e-05, Final residual = 7.0073016e-08, No Iterations 2
Time = 0.365

DILUPBiCG:  Solving for T, Initial residual = 0.0041437319, Final residual = 2.2785233e-08, No Iterations 3
DILUPBiCG:  Solving for T, Initial residual = 3.2704597e-05, Final residual = 3.0300917e-08, No Iterations 2
Time = 0.37

DILUPBiCG:  Solving for T, Initial residual = 0.0040876298, Final residual = 2.4861309e-08, No Iterations 3
DILUPBiCG:  Solving for T, Initial residual = 2.5131523e-05, Final residual = 1.9760649e-08, No Iterations 2
Time = 0.375

DILUPBiCG:  Solving for T, Initial residual = 0.0040316337, Final residual = 2.2470967e-08, No Iterations 3
DILUPBiCG:  Solving for T, Initial residual = 3.9839906e-05, Final residual = 7.5757167e-08, No Iterations 2
Time = 0.38

DILUPBiCG:  Solving for T, Initial residual = 0.0039760254, Final residual = 2.7076456e-08, No Iterations 3
DILUPBiCG:  Solving for T, Initial residual = 3.2411343e-05, Final residual = 5.1358759e-08, No Iterations 2
Time = 0.385

DILUPBiCG:  Solving for T, Initial residual = 0.0039228872, Final residual = 3.7290821e-08, No Iterations 3
DILUPBiCG:  Solving for T, Initial residual = 2.5356526e-05, Final residual = 4.0587547e-08, No Iterations 2
Time = 0.39

DILUPBiCG:  Solving for T, Initial residual = 0.0038713782, Final residual = 2.3152214e-08, No Iterations 3
DILUPBiCG:  Solving for T, Initial residual = 3.717535e-05, Final residual = 6.8737893e-08, No Iterations 2
Time = 0.395

DILUPBiCG:  Solving for T, Initial residual = 0.003820436, Final residual = 2.2461814e-08, No Iterations 3
DILUPBiCG:  Solving for T, Initial residual = 3.4417967e-05, Final residual = 4.8872491e-08, No Iterations 2
Time = 0.4

DILUPBiCG:  Solving for T, Initial residual = 0.003770073, Final residual = 9.6321615e-07, No Iterations 2
DILUPBiCG:  Solving for T, Initial residual = 2.8097382e-05, Final residual = 2.530403e-08, No Iterations 2
Time = 0.405

DILUPBiCG:  Solving for T, Initial residual = 0.0037217521, Final residual = 2.142012e-08, No Iterations 3
DILUPBiCG:  Solving for T, Initial residual = 2.7021081e-05, Final residual = 5.7715894e-08, No Iterations 2
Time = 0.41

DILUPBiCG:  Solving for T, Initial residual = 0.0036733283, Final residual = 2.3250868e-08, No Iterations 3
DILUPBiCG:  Solving for T, Initial residual = 3.3763679e-05, Final residual = 9.6217228e-07, No Iterations 1
Time = 0.415

DILUPBiCG:  Solving for T, Initial residual = 0.003625044, Final residual = 2.0228402e-08, No Iterations 3
DILUPBiCG:  Solving for T, Initial residual = 2.7538083e-05, Final residual = 2.9746289e-08, No Iterations 2
Time = 0.42

DILUPBiCG:  Solving for T, Initial residual = 0.0035784079, Final residual = 2.0096997e-08, No Iterations 3
DILUPBiCG:  Solving for T, Initial residual = 2.2194458e-05, Final residual = 2.3713203e-08, No Iterations 2
Time = 0.425

DILUPBiCG:  Solving for T, Initial residual = 0.0035331196, Final residual = 1.9865759e-08, No Iterations 3
DILUPBiCG:  Solving for T, Initial residual = 3.3450063e-05, Final residual = 8.9049602e-08, No Iterations 2
Time = 0.43

DILUPBiCG:  Solving for T, Initial residual = 0.0034877489, Final residual = 2.1158304e-08, No Iterations 3
DILUPBiCG:  Solving for T, Initial residual = 2.7655525e-05, Final residual = 4.8001595e-07, No Iterations 2
Time = 0.435

DILUPBiCG:  Solving for T, Initial residual = 0.0034427883, Final residual = 1.8616014e-08, No Iterations 3
DILUPBiCG:  Solving for T, Initial residual = 2.2132426e-05, Final residual = 3.6761368e-07, No Iterations 2
Time = 0.44

DILUPBiCG:  Solving for T, Initial residual = 0.0033996768, Final residual = 1.8797054e-08, No Iterations 3
DILUPBiCG:  Solving for T, Initial residual = 3.296103e-05, Final residual = 7.1305208e-08, No Iterations 2
Time = 0.445

DILUPBiCG:  Solving for T, Initial residual = 0.0033565615, Final residual = 1.8788871e-08, No Iterations 3
DILUPBiCG:  Solving for T, Initial residual = 2.764188e-05, Final residual = 3.4586062e-08, No Iterations 2
Time = 0.45

DILUPBiCG:  Solving for T, Initial residual = 0.0033135332, Final residual = 8.7387319e-07, No Iterations 2
DILUPBiCG:  Solving for T, Initial residual = 2.2434396e-05, Final residual = 3.4965732e-08, No Iterations 2
Time = 0.455

DILUPBiCG:  Solving for T, Initial residual = 0.0032716188, Final residual = 1.9119727e-08, No Iterations 3
DILUPBiCG:  Solving for T, Initial residual = 2.4151149e-05, Final residual = 3.0021013e-08, No Iterations 2
Time = 0.46

DILUPBiCG:  Solving for T, Initial residual = 0.0032308594, Final residual = 2.0742185e-08, No Iterations 3
DILUPBiCG:  Solving for T, Initial residual = 2.6716016e-05, Final residual = 4.71686e-08, No Iterations 2
Time = 0.465

DILUPBiCG:  Solving for T, Initial residual = 0.0031903852, Final residual = 1.9042967e-08, No Iterations 3
DILUPBiCG:  Solving for T, Initial residual = 2.2420739e-05, Final residual = 2.1591626e-08, No Iterations 2
Time = 0.47

DILUPBiCG:  Solving for T, Initial residual = 0.0031502594, Final residual = 1.8145591e-08, No Iterations 3
DILUPBiCG:  Solving for T, Initial residual = 1.8668873e-05, Final residual = 8.5914168e-08, No Iterations 2
Time = 0.475

DILUPBiCG:  Solving for T, Initial residual = 0.0031114368, Final residual = 2.3176569e-08, No Iterations 3
DILUPBiCG:  Solving for T, Initial residual = 2.7271556e-05, Final residual = 5.6583288e-08, No Iterations 2
Time = 0.48

DILUPBiCG:  Solving for T, Initial residual = 0.0030729214, Final residual = 1.8984354e-08, No Iterations 3
DILUPBiCG:  Solving for T, Initial residual = 2.2997671e-05, Final residual = 2.6092981e-08, No Iterations 2
Time = 0.485

DILUPBiCG:  Solving for T, Initial residual = 0.0030342435, Final residual = 2.2829134e-08, No Iterations 3
DILUPBiCG:  Solving for T, Initial residual = 1.8659386e-05, Final residual = 8.6000374e-07, No Iterations 1
Time = 0.49

DILUPBiCG:  Solving for T, Initial residual = 0.0029958288, Final residual = 6.9251551e-07, No Iterations 2
DILUPBiCG:  Solving for T, Initial residual = 2.6938029e-05, Final residual = 3.9772008e-08, No Iterations 2
Time = 0.495

DILUPBiCG:  Solving for T, Initial residual = 0.0029588639, Final residual = 7.9515675e-07, No Iterations 2
DILUPBiCG:  Solving for T, Initial residual = 2.2616637e-05, Final residual = 1.6975835e-07, No Iterations 2
Time = 0.5

DILUPBiCG:  Solving for T, Initial residual = 0.0029217512, Final residual = 1.6995956e-08, No Iterations 3
DILUPBiCG:  Solving for T, Initial residual = 1.8068634e-05, Final residual = 6.5620285e-07, No Iterations 1
Time = 0.505

DILUPBiCG:  Solving for T, Initial residual = 0.0028843755, Final residual = 1.7450538e-08, No Iterations 3
DILUPBiCG:  Solving for T, Initial residual = 2.1529998e-05, Final residual = 4.3317969e-07, No Iterations 2
Time = 0.51

DILUPBiCG:  Solving for T, Initial residual = 0.0028481911, Final residual = 1.7642746e-08, No Iterations 3
DILUPBiCG:  Solving for T, Initial residual = 2.1439584e-05, Final residual = 1.6862618e-07, No Iterations 2
Time = 0.515

DILUPBiCG:  Solving for T, Initial residual = 0.0028124275, Final residual = 1.74748e-08, No Iterations 3
DILUPBiCG:  Solving for T, Initial residual = 1.7478441e-05, Final residual = 8.6007727e-07, No Iterations 1
Time = 0.52

DILUPBiCG:  Solving for T, Initial residual = 0.0027764487, Final residual = 1.628471e-08, No Iterations 3
DILUPBiCG:  Solving for T, Initial residual = 1.4733092e-05, Final residual = 9.633331e-07, No Iterations 1
Time = 0.525

DILUPBiCG:  Solving for T, Initial residual = 0.0027410324, Final residual = 6.9505301e-07, No Iterations 2
DILUPBiCG:  Solving for T, Initial residual = 2.0933079e-05, Final residual = 5.8685842e-08, No Iterations 2
Time = 0.53

DILUPBiCG:  Solving for T, Initial residual = 0.0027069411, Final residual = 4.0785758e-08, No Iterations 3
DILUPBiCG:  Solving for T, Initial residual = 1.7127835e-05, Final residual = 1.4794768e-07, No Iterations 2
Time = 0.535

DILUPBiCG:  Solving for T, Initial residual = 0.002672807, Final residual = 8.393402e-07, No Iterations 2
DILUPBiCG:  Solving for T, Initial residual = 1.4099379e-05, Final residual = 7.03345e-07, No Iterations 1
Time = 0.54

DILUPBiCG:  Solving for T, Initial residual = 0.0026381763, Final residual = 6.2219146e-07, No Iterations 2
DILUPBiCG:  Solving for T, Initial residual = 2.0380636e-05, Final residual = 4.391506e-08, No Iterations 2
Time = 0.545

DILUPBiCG:  Solving for T, Initial residual = 0.0026047828, Final residual = 1.3826318e-08, No Iterations 3
DILUPBiCG:  Solving for T, Initial residual = 1.7095624e-05, Final residual = 1.011806e-07, No Iterations 2
Time = 0.55

DILUPBiCG:  Solving for T, Initial residual = 0.0025718575, Final residual = 1.8615177e-08, No Iterations 3
DILUPBiCG:  Solving for T, Initial residual = 1.4134044e-05, Final residual = 5.319058e-07, No Iterations 1
Time = 0.555

DILUPBiCG:  Solving for T, Initial residual = 0.0025387169, Final residual = 5.7001534e-07, No Iterations 2
DILUPBiCG:  Solving for T, Initial residual = 1.8803982e-05, Final residual = 3.8900579e-08, No Iterations 2
Time = 0.56

DILUPBiCG:  Solving for T, Initial residual = 0.0025059916, Final residual = 1.6693268e-08, No Iterations 3
DILUPBiCG:  Solving for T, Initial residual = 1.7596941e-05, Final residual = 9.151539e-07, No Iterations 1
Time = 0.565

DILUPBiCG:  Solving for T, Initial residual = 0.0024737294, Final residual = 5.5878982e-07, No Iterations 2
DILUPBiCG:  Solving for T, Initial residual = 1.4818267e-05, Final residual = 6.8443552e-07, No Iterations 1
Time = 0.57

DILUPBiCG:  Solving for T, Initial residual = 0.002441389, Final residual = 1.417655e-08, No Iterations 3
DILUPBiCG:  Solving for T, Initial residual = 1.3586475e-05, Final residual = 9.0111635e-07, No Iterations 1
Time = 0.575

DILUPBiCG:  Solving for T, Initial residual = 0.0024089483, Final residual = 6.1937803e-07, No Iterations 2
DILUPBiCG:  Solving for T, Initial residual = 1.7813484e-05, Final residual = 8.3022143e-07, No Iterations 1
Time = 0.58

DILUPBiCG:  Solving for T, Initial residual = 0.0023776626, Final residual = 5.9293918e-07, No Iterations 2
DILUPBiCG:  Solving for T, Initial residual = 1.5375601e-05, Final residual = 7.6237249e-07, No Iterations 1
Time = 0.585

DILUPBiCG:  Solving for T, Initial residual = 0.0023465777, Final residual = 5.9442836e-07, No Iterations 2
DILUPBiCG:  Solving for T, Initial residual = 1.2770954e-05, Final residual = 4.9376783e-07, No Iterations 1
Time = 0.59

DILUPBiCG:  Solving for T, Initial residual = 0.0023153478, Final residual = 5.466071e-07, No Iterations 2
DILUPBiCG:  Solving for T, Initial residual = 1.8466819e-05, Final residual = 7.7929816e-07, No Iterations 1
Time = 0.595

DILUPBiCG:  Solving for T, Initial residual = 0.0022848789, Final residual = 5.2209431e-07, No Iterations 2
DILUPBiCG:  Solving for T, Initial residual = 1.6654637e-05, Final residual = 6.0204477e-07, No Iterations 1
Time = 0.6

DILUPBiCG:  Solving for T, Initial residual = 0.0022544948, Final residual = 5.274783e-07, No Iterations 2
DILUPBiCG:  Solving for T, Initial residual = 1.4233616e-05, Final residual = 4.4227785e-07, No Iterations 1
Time = 0.605

DILUPBiCG:  Solving for T, Initial residual = 0.0022238793, Final residual = 1.2607417e-08, No Iterations 3
DILUPBiCG:  Solving for T, Initial residual = 1.8102631e-05, Final residual = 4.6777829e-07, No Iterations 1
Time = 0.61

DILUPBiCG:  Solving for T, Initial residual = 0.0021932099, Final residual = 4.9879547e-07, No Iterations 2
DILUPBiCG:  Solving for T, Initial residual = 1.6796627e-05, Final residual = 6.1004861e-07, No Iterations 1
Time = 0.615

DILUPBiCG:  Solving for T, Initial residual = 0.0021630197, Final residual = 1.2346754e-08, No Iterations 3
DILUPBiCG:  Solving for T, Initial residual = 1.4210397e-05, Final residual = 6.0563306e-07, No Iterations 1
Time = 0.62

DILUPBiCG:  Solving for T, Initial residual = 0.0021328085, Final residual = 6.0454298e-07, No Iterations 2
DILUPBiCG:  Solving for T, Initial residual = 1.4112808e-05, Final residual = 4.4093805e-07, No Iterations 1
Time = 0.625

DILUPBiCG:  Solving for T, Initial residual = 0.0021024938, Final residual = 5.4442658e-07, No Iterations 2
DILUPBiCG:  Solving for T, Initial residual = 1.6142218e-05, Final residual = 7.322838e-07, No Iterations 1
Time = 0.63

DILUPBiCG:  Solving for T, Initial residual = 0.002072152, Final residual = 4.841843e-07, No Iterations 2
DILUPBiCG:  Solving for T, Initial residual = 1.3720362e-05, Final residual = 5.4701289e-07, No Iterations 1
Time = 0.635

DILUPBiCG:  Solving for T, Initial residual = 0.0020424698, Final residual = 5.0294503e-07, No Iterations 2
DILUPBiCG:  Solving for T, Initial residual = 1.166935e-05, Final residual = 3.9565251e-07, No Iterations 1
Time = 0.64

DILUPBiCG:  Solving for T, Initial residual = 0.0020131943, Final residual = 4.5404942e-07, No Iterations 2
DILUPBiCG:  Solving for T, Initial residual = 1.595113e-05, Final residual = 5.1927864e-07, No Iterations 1
Time = 0.645

DILUPBiCG:  Solving for T, Initial residual = 0.001983854, Final residual = 1.1034814e-08, No Iterations 3
DILUPBiCG:  Solving for T, Initial residual = 1.4072284e-05, Final residual = 6.8914632e-07, No Iterations 1
Time = 0.65

DILUPBiCG:  Solving for T, Initial residual = 0.0019546656, Final residual = 1.1669667e-08, No Iterations 3
DILUPBiCG:  Solving for T, Initial residual = 1.2027072e-05, Final residual = 4.5927617e-07, No Iterations 1
Time = 0.655

DILUPBiCG:  Solving for T, Initial residual = 0.001925656, Final residual = 1.3510276e-08, No Iterations 3
DILUPBiCG:  Solving for T, Initial residual = 1.5754514e-05, Final residual = 3.7333551e-10, No Iterations 3
Time = 0.66

DILUPBiCG:  Solving for T, Initial residual = 0.0018965791, Final residual = 1.266367e-08, No Iterations 3
DILUPBiCG:  Solving for T, Initial residual = 1.4103445e-05, Final residual = 5.8388399e-07, No Iterations 1
Time = 0.665

DILUPBiCG:  Solving for T, Initial residual = 0.0018674722, Final residual = 3.095636e-07, No Iterations 2
DILUPBiCG:  Solving for T, Initial residual = 1.2361071e-05, Final residual = 9.7598843e-07, No Iterations 1
Time = 0.67

DILUPBiCG:  Solving for T, Initial residual = 0.0018384019, Final residual = 4.2202776e-07, No Iterations 2
DILUPBiCG:  Solving for T, Initial residual = 1.2724372e-05, Final residual = 3.7637524e-07, No Iterations 1
Time = 0.675

DILUPBiCG:  Solving for T, Initial residual = 0.001809948, Final residual = 4.2853697e-07, No Iterations 2
DILUPBiCG:  Solving for T, Initial residual = 1.4164299e-05, Final residual = 2.8882374e-08, No Iterations 2
Time = 0.68

DILUPBiCG:  Solving for T, Initial residual = 0.00178126, Final residual = 4.4422304e-07, No Iterations 2
DILUPBiCG:  Solving for T, Initial residual = 1.278566e-05, Final residual = 1.6081592e-08, No Iterations 2
Time = 0.685

DILUPBiCG:  Solving for T, Initial residual = 0.0017530929, Final residual = 4.3867724e-07, No Iterations 2
DILUPBiCG:  Solving for T, Initial residual = 1.1585832e-05, Final residual = 1.9301586e-08, No Iterations 2
Time = 0.69

DILUPBiCG:  Solving for T, Initial residual = 0.0017252227, Final residual = 4.4065058e-07, No Iterations 2
DILUPBiCG:  Solving for T, Initial residual = 1.4948151e-05, Final residual = 5.3963138e-07, No Iterations 1
Time = 0.695

DILUPBiCG:  Solving for T, Initial residual = 0.0016970609, Final residual = 3.8209249e-07, No Iterations 2
DILUPBiCG:  Solving for T, Initial residual = 1.363759e-05, Final residual = 3.5372527e-07, No Iterations 1
Time = 0.7

DILUPBiCG:  Solving for T, Initial residual = 0.0016690021, Final residual = 3.5959445e-07, No Iterations 2
DILUPBiCG:  Solving for T, Initial residual = 1.2305164e-05, Final residual = 3.6010183e-08, No Iterations 2
Time = 0.705

DILUPBiCG:  Solving for T, Initial residual = 0.0016409603, Final residual = 3.6340099e-07, No Iterations 2
DILUPBiCG:  Solving for T, Initial residual = 1.499888e-05, Final residual = 4.8734246e-07, No Iterations 1
Time = 0.71

DILUPBiCG:  Solving for T, Initial residual = 0.0016127259, Final residual = 3.4252516e-07, No Iterations 2
DILUPBiCG:  Solving for T, Initial residual = 1.3900818e-05, Final residual = 3.5177733e-07, No Iterations 1
Time = 0.715

DILUPBiCG:  Solving for T, Initial residual = 0.001584875, Final residual = 3.2771307e-07, No Iterations 2
DILUPBiCG:  Solving for T, Initial residual = 1.2903967e-05, Final residual = 8.349527e-07, No Iterations 1
Time = 0.72

DILUPBiCG:  Solving for T, Initial residual = 0.0015574816, Final residual = 3.109518e-07, No Iterations 2
DILUPBiCG:  Solving for T, Initial residual = 1.4297088e-05, Final residual = 3.6733087e-07, No Iterations 1
Time = 0.725

DILUPBiCG:  Solving for T, Initial residual = 0.0015295153, Final residual = 3.2920382e-07, No Iterations 2
DILUPBiCG:  Solving for T, Initial residual = 1.4574944e-05, Final residual = 3.832706e-07, No Iterations 1
Time = 0.73

DILUPBiCG:  Solving for T, Initial residual = 0.0015012537, Final residual = 3.2398922e-07, No Iterations 2
DILUPBiCG:  Solving for T, Initial residual = 1.2994529e-05, Final residual = 2.8975302e-08, No Iterations 2
Time = 0.735

DILUPBiCG:  Solving for T, Initial residual = 0.0014729505, Final residual = 2.9934133e-07, No Iterations 2
DILUPBiCG:  Solving for T, Initial residual = 1.1422763e-05, Final residual = 1.5762129e-08, No Iterations 2
Time = 0.74

DILUPBiCG:  Solving for T, Initial residual = 0.001445136, Final residual = 2.9735577e-07, No Iterations 2
DILUPBiCG:  Solving for T, Initial residual = 1.3820673e-05, Final residual = 4.0923706e-07, No Iterations 1
Time = 0.745

DILUPBiCG:  Solving for T, Initial residual = 0.0014176304, Final residual = 2.9339035e-07, No Iterations 2
DILUPBiCG:  Solving for T, Initial residual = 1.3043356e-05, Final residual = 3.7282467e-08, No Iterations 2
Time = 0.75

DILUPBiCG:  Solving for T, Initial residual = 0.0013900026, Final residual = 2.8842693e-07, No Iterations 2
DILUPBiCG:  Solving for T, Initial residual = 1.190359e-05, Final residual = 6.0541839e-07, No Iterations 1
Time = 0.755

DILUPBiCG:  Solving for T, Initial residual = 0.0013619841, Final residual = 2.7906556e-07, No Iterations 2
DILUPBiCG:  Solving for T, Initial residual = 1.3442697e-05, Final residual = 4.9857078e-07, No Iterations 1
Time = 0.76

DILUPBiCG:  Solving for T, Initial residual = 0.0013342916, Final residual = 2.7209085e-07, No Iterations 2
DILUPBiCG:  Solving for T, Initial residual = 1.2543994e-05, Final residual = 5.5480289e-07, No Iterations 1
Time = 0.765

DILUPBiCG:  Solving for T, Initial residual = 0.0013065376, Final residual = 2.6473314e-07, No Iterations 2
DILUPBiCG:  Solving for T, Initial residual = 1.1476178e-05, Final residual = 4.547429e-07, No Iterations 1
Time = 0.77

DILUPBiCG:  Solving for T, Initial residual = 0.0012787217, Final residual = 2.5743499e-07, No Iterations 2
DILUPBiCG:  Solving for T, Initial residual = 1.2204805e-05, Final residual = 6.1137868e-07, No Iterations 1
Time = 0.775

DILUPBiCG:  Solving for T, Initial residual = 0.0012509219, Final residual = 2.5077912e-07, No Iterations 2
DILUPBiCG:  Solving for T, Initial residual = 1.201599e-05, Final residual = 3.2449287e-08, No Iterations 2
Time = 0.78

DILUPBiCG:  Solving for T, Initial residual = 0.0012233514, Final residual = 2.4459726e-07, No Iterations 2
DILUPBiCG:  Solving for T, Initial residual = 1.1142547e-05, Final residual = 3.1912076e-07, No Iterations 1
Time = 0.785

DILUPBiCG:  Solving for T, Initial residual = 0.0011954793, Final residual = 2.3771983e-07, No Iterations 2
DILUPBiCG:  Solving for T, Initial residual = 1.0112208e-05, Final residual = 2.7001143e-07, No Iterations 1
Time = 0.79

DILUPBiCG:  Solving for T, Initial residual = 0.0011677561, Final residual = 2.3085244e-07, No Iterations 2
DILUPBiCG:  Solving for T, Initial residual = 1.1485725e-05, Final residual = 1.8099735e-08, No Iterations 2
Time = 0.795

DILUPBiCG:  Solving for T, Initial residual = 0.0011403936, Final residual = 2.2457128e-07, No Iterations 2
DILUPBiCG:  Solving for T, Initial residual = 1.0827085e-05, Final residual = 3.7312974e-07, No Iterations 1
Time = 0.8

DILUPBiCG:  Solving for T, Initial residual = 0.0011129792, Final residual = 2.1826118e-07, No Iterations 2
DILUPBiCG:  Solving for T, Initial residual = 1.0067716e-05, Final residual = 2.6026629e-07, No Iterations 1
Time = 0.805

DILUPBiCG:  Solving for T, Initial residual = 0.0010854085, Final residual = 2.1160922e-07, No Iterations 2
DILUPBiCG:  Solving for T, Initial residual = 1.1434337e-05, Final residual = 1.2736921e-08, No Iterations 2
Time = 0.81

DILUPBiCG:  Solving for T, Initial residual = 0.001057984, Final residual = 2.0509461e-07, No Iterations 2
DILUPBiCG:  Solving for T, Initial residual = 1.0904176e-05, Final residual = 1.1161432e-08, No Iterations 2
Time = 0.815

DILUPBiCG:  Solving for T, Initial residual = 0.0010305163, Final residual = 1.9869759e-07, No Iterations 2
DILUPBiCG:  Solving for T, Initial residual = 1.037111e-05, Final residual = 2.9727603e-07, No Iterations 1
Time = 0.82

DILUPBiCG:  Solving for T, Initial residual = 0.0010031243, Final residual = 1.9227402e-07, No Iterations 2
DILUPBiCG:  Solving for T, Initial residual = 1.1430276e-05, Final residual = 1.0007763e-08, No Iterations 2
Time = 0.825

DILUPBiCG:  Solving for T, Initial residual = 0.0009759369, Final residual = 1.8628172e-07, No Iterations 2
DILUPBiCG:  Solving for T, Initial residual = 1.1692912e-05, Final residual = 9.9916212e-09, No Iterations 2
Time = 0.83

DILUPBiCG:  Solving for T, Initial residual = 0.00094879939, Final residual = 1.8007956e-07, No Iterations 2
DILUPBiCG:  Solving for T, Initial residual = 1.1506333e-05, Final residual = 4.4143839e-07, No Iterations 1
Time = 0.835

DILUPBiCG:  Solving for T, Initial residual = 0.00092172888, Final residual = 1.7385314e-07, No Iterations 2
DILUPBiCG:  Solving for T, Initial residual = 1.1625927e-05, Final residual = 5.8798822e-07, No Iterations 1
Time = 0.84

DILUPBiCG:  Solving for T, Initial residual = 0.00089468928, Final residual = 1.680136e-07, No Iterations 2
DILUPBiCG:  Solving for T, Initial residual = 1.2912806e-05, Final residual = 7.2811879e-07, No Iterations 1
Time = 0.845

DILUPBiCG:  Solving for T, Initial residual = 0.00086787923, Final residual = 1.6205824e-07, No Iterations 2
DILUPBiCG:  Solving for T, Initial residual = 1.3412182e-05, Final residual = 4.1839471e-07, No Iterations 1
Time = 0.85

DILUPBiCG:  Solving for T, Initial residual = 0.00084114786, Final residual = 1.5594313e-07, No Iterations 2
DILUPBiCG:  Solving for T, Initial residual = 1.399776e-05, Final residual = 3.8826482e-07, No Iterations 1
Time = 0.855

DILUPBiCG:  Solving for T, Initial residual = 0.00081476352, Final residual = 1.503193e-07, No Iterations 2
DILUPBiCG:  Solving for T, Initial residual = 1.5894018e-05, Final residual = 4.5467843e-07, No Iterations 1
Time = 0.86

DILUPBiCG:  Solving for T, Initial residual = 0.00078850145, Final residual = 1.4497177e-07, No Iterations 2
DILUPBiCG:  Solving for T, Initial residual = 1.6838341e-05, Final residual = 4.5466223e-07, No Iterations 1
Time = 0.865

DILUPBiCG:  Solving for T, Initial residual = 0.00076222392, Final residual = 1.3945785e-07, No Iterations 2
DILUPBiCG:  Solving for T, Initial residual = 1.7879083e-05, Final residual = 4.7624035e-07, No Iterations 1
Time = 0.87

DILUPBiCG:  Solving for T, Initial residual = 0.00073603532, Final residual = 1.337919e-07, No Iterations 2
DILUPBiCG:  Solving for T, Initial residual = 1.9372218e-05, Final residual = 5.262873e-07, No Iterations 1
Time = 0.875

DILUPBiCG:  Solving for T, Initial residual = 0.00070980545, Final residual = 1.2854091e-07, No Iterations 2
DILUPBiCG:  Solving for T, Initial residual = 2.0455873e-05, Final residual = 5.4952677e-07, No Iterations 1
Time = 0.88

DILUPBiCG:  Solving for T, Initial residual = 0.00068352122, Final residual = 1.2335105e-07, No Iterations 2
DILUPBiCG:  Solving for T, Initial residual = 2.1343519e-05, Final residual = 5.7995254e-07, No Iterations 1
Time = 0.885

DILUPBiCG:  Solving for T, Initial residual = 0.00065766119, Final residual = 1.1821978e-07, No Iterations 2
DILUPBiCG:  Solving for T, Initial residual = 2.1837589e-05, Final residual = 5.9124927e-07, No Iterations 1
Time = 0.89

DILUPBiCG:  Solving for T, Initial residual = 0.00063176486, Final residual = 1.1308448e-07, No Iterations 2
DILUPBiCG:  Solving for T, Initial residual = 2.3095689e-05, Final residual = 6.5742424e-07, No Iterations 1
Time = 0.895

DILUPBiCG:  Solving for T, Initial residual = 0.00060595851, Final residual = 1.0807612e-07, No Iterations 2
DILUPBiCG:  Solving for T, Initial residual = 2.3526153e-05, Final residual = 6.8120322e-07, No Iterations 1
Time = 0.9

DILUPBiCG:  Solving for T, Initial residual = 0.00058037739, Final residual = 1.0335049e-07, No Iterations 2
DILUPBiCG:  Solving for T, Initial residual = 2.4418724e-05, Final residual = 8.1738663e-07, No Iterations 1
Time = 0.905

DILUPBiCG:  Solving for T, Initial residual = 0.00055523627, Final residual = 9.877322e-08, No Iterations 2
DILUPBiCG:  Solving for T, Initial residual = 2.5404819e-05, Final residual = 2.3582873e-08, No Iterations 2
Time = 0.91

DILUPBiCG:  Solving for T, Initial residual = 0.0005304148, Final residual = 9.4325031e-08, No Iterations 2
DILUPBiCG:  Solving for T, Initial residual = 2.5797291e-05, Final residual = 3.1142719e-08, No Iterations 2
Time = 0.915

DILUPBiCG:  Solving for T, Initial residual = 0.00050582839, Final residual = 9.0023839e-08, No Iterations 2
DILUPBiCG:  Solving for T, Initial residual = 2.6014888e-05, Final residual = 4.9377024e-08, No Iterations 2
Time = 0.92

DILUPBiCG:  Solving for T, Initial residual = 0.00048158338, Final residual = 8.5772784e-08, No Iterations 2
DILUPBiCG:  Solving for T, Initial residual = 2.6367892e-05, Final residual = 5.5074736e-07, No Iterations 2
Time = 0.925

DILUPBiCG:  Solving for T, Initial residual = 0.00045833696, Final residual = 8.1723979e-08, No Iterations 2
DILUPBiCG:  Solving for T, Initial residual = 2.7626353e-05, Final residual = 6.7206471e-07, No Iterations 1
Time = 0.93

DILUPBiCG:  Solving for T, Initial residual = 0.00043515377, Final residual = 7.7396906e-08, No Iterations 2
DILUPBiCG:  Solving for T, Initial residual = 2.8779869e-05, Final residual = 6.4957467e-07, No Iterations 1
Time = 0.935

DILUPBiCG:  Solving for T, Initial residual = 0.00041254106, Final residual = 7.3270985e-08, No Iterations 2
DILUPBiCG:  Solving for T, Initial residual = 3.0209273e-05, Final residual = 6.5943534e-07, No Iterations 1
Time = 0.94

DILUPBiCG:  Solving for T, Initial residual = 0.00039036746, Final residual = 6.9456e-08, No Iterations 2
DILUPBiCG:  Solving for T, Initial residual = 3.2532764e-05, Final residual = 6.8284341e-07, No Iterations 1
Time = 0.945

DILUPBiCG:  Solving for T, Initial residual = 0.00036869433, Final residual = 6.5835221e-08, No Iterations 2
DILUPBiCG:  Solving for T, Initial residual = 3.4897597e-05, Final residual = 6.9806755e-07, No Iterations 1
Time = 0.95

DILUPBiCG:  Solving for T, Initial residual = 0.000347631, Final residual = 6.2506036e-08, No Iterations 2
DILUPBiCG:  Solving for T, Initial residual = 3.7981133e-05, Final residual = 7.1768279e-07, No Iterations 1
Time = 0.955

DILUPBiCG:  Solving for T, Initial residual = 0.00032735426, Final residual = 5.8848384e-08, No Iterations 2
DILUPBiCG:  Solving for T, Initial residual = 4.1421727e-05, Final residual = 8.4679579e-07, No Iterations 1
Time = 0.96

DILUPBiCG:  Solving for T, Initial residual = 0.00030763651, Final residual = 5.5194864e-08, No Iterations 2
DILUPBiCG:  Solving for T, Initial residual = 4.4919736e-05, Final residual = 2.5952947e-08, No Iterations 2
Time = 0.965

DILUPBiCG:  Solving for T, Initial residual = 0.00028884951, Final residual = 5.1749276e-08, No Iterations 2
DILUPBiCG:  Solving for T, Initial residual = 4.9011828e-05, Final residual = 2.5548909e-08, No Iterations 2
Time = 0.97

DILUPBiCG:  Solving for T, Initial residual = 0.00027068155, Final residual = 4.8525833e-08, No Iterations 2
DILUPBiCG:  Solving for T, Initial residual = 5.3305894e-05, Final residual = 2.7093777e-08, No Iterations 2
Time = 0.975

DILUPBiCG:  Solving for T, Initial residual = 0.00025338401, Final residual = 4.5748004e-08, No Iterations 2
DILUPBiCG:  Solving for T, Initial residual = 5.8181543e-05, Final residual = 2.8630146e-08, No Iterations 2
Time = 0.98

DILUPBiCG:  Solving for T, Initial residual = 0.00023698981, Final residual = 4.37709e-08, No Iterations 2
DILUPBiCG:  Solving for T, Initial residual = 6.2699232e-05, Final residual = 3.0129836e-08, No Iterations 2
Time = 0.985

DILUPBiCG:  Solving for T, Initial residual = 0.00022139095, Final residual = 4.274912e-08, No Iterations 2
DILUPBiCG:  Solving for T, Initial residual = 6.7139586e-05, Final residual = 3.1596944e-08, No Iterations 2
Time = 0.99

DILUPBiCG:  Solving for T, Initial residual = 0.00020684936, Final residual = 4.2100578e-08, No Iterations 2
DILUPBiCG:  Solving for T, Initial residual = 7.2005165e-05, Final residual = 3.3592953e-08, No Iterations 2
Time = 0.995

DILUPBiCG:  Solving for T, Initial residual = 0.00019311417, Final residual = 4.1572764e-08, No Iterations 2
DILUPBiCG:  Solving for T, Initial residual = 7.6804211e-05, Final residual = 3.5216797e-08, No Iterations 2
Time = 1

DILUPBiCG:  Solving for T, Initial residual = 0.00018014404, Final residual = 4.1043348e-08, No Iterations 2
DILUPBiCG:  Solving for T, Initial residual = 8.1827364e-05, Final residual = 3.6734122e-08, No Iterations 2
Time = 1.005

DILUPBiCG:  Solving for T, Initial residual = 0.00016842482, Final residual = 4.0729792e-08, No Iterations 2
DILUPBiCG:  Solving for T, Initial residual = 8.7171922e-05, Final residual = 3.8316027e-08, No Iterations 2
Time = 1.01

DILUPBiCG:  Solving for T, Initial residual = 0.00015856478, Final residual = 4.0872172e-08, No Iterations 2
DILUPBiCG:  Solving for T, Initial residual = 9.2469301e-05, Final residual = 3.9871678e-08, No Iterations 2
Time = 1.015

DILUPBiCG:  Solving for T, Initial residual = 0.00014987614, Final residual = 4.1308492e-08, No Iterations 2
DILUPBiCG:  Solving for T, Initial residual = 9.7589814e-05, Final residual = 4.1221243e-08, No Iterations 2
Time = 1.02

DILUPBiCG:  Solving for T, Initial residual = 0.00014387549, Final residual = 4.1959008e-08, No Iterations 2
DILUPBiCG:  Solving for T, Initial residual = 0.00010251449, Final residual = 4.2593689e-08, No Iterations 2
Time = 1.025

DILUPBiCG:  Solving for T, Initial residual = 0.00013906634, Final residual = 4.2759347e-08, No Iterations 2
DILUPBiCG:  Solving for T, Initial residual = 0.00010712102, Final residual = 4.4347575e-08, No Iterations 2
Time = 1.03

DILUPBiCG:  Solving for T, Initial residual = 0.00013572439, Final residual = 4.3691449e-08, No Iterations 2
DILUPBiCG:  Solving for T, Initial residual = 0.00011108951, Final residual = 4.5800439e-08, No Iterations 2
Time = 1.035

DILUPBiCG:  Solving for T, Initial residual = 0.000134245, Final residual = 4.4633805e-08, No Iterations 2
DILUPBiCG:  Solving for T, Initial residual = 0.00011460966, Final residual = 4.7078369e-08, No Iterations 2
Time = 1.04

DILUPBiCG:  Solving for T, Initial residual = 0.00013329964, Final residual = 4.5440581e-08, No Iterations 2
DILUPBiCG:  Solving for T, Initial residual = 0.00011750466, Final residual = 4.8163911e-08, No Iterations 2
Time = 1.045

DILUPBiCG:  Solving for T, Initial residual = 0.00013272108, Final residual = 4.6234224e-08, No Iterations 2
DILUPBiCG:  Solving for T, Initial residual = 0.0001201737, Final residual = 4.9154176e-08, No Iterations 2
Time = 1.05

DILUPBiCG:  Solving for T, Initial residual = 0.00013293373, Final residual = 4.7413203e-08, No Iterations 2
DILUPBiCG:  Solving for T, Initial residual = 0.00012278447, Final residual = 5.0155628e-08, No Iterations 2
Time = 1.055

DILUPBiCG:  Solving for T, Initial residual = 0.00013337889, Final residual = 4.9040872e-08, No Iterations 2
DILUPBiCG:  Solving for T, Initial residual = 0.00012491178, Final residual = 5.0981903e-08, No Iterations 2
Time = 1.06

DILUPBiCG:  Solving for T, Initial residual = 0.00013404522, Final residual = 5.1634559e-08, No Iterations 2
DILUPBiCG:  Solving for T, Initial residual = 0.00012721806, Final residual = 5.179785e-08, No Iterations 2
Time = 1.065

DILUPBiCG:  Solving for T, Initial residual = 0.00013518232, Final residual = 5.875682e-08, No Iterations 2
DILUPBiCG:  Solving for T, Initial residual = 0.00012943115, Final residual = 5.262745e-08, No Iterations 2
Time = 1.07

DILUPBiCG:  Solving for T, Initial residual = 0.00013651148, Final residual = 8.7793848e-08, No Iterations 2
DILUPBiCG:  Solving for T, Initial residual = 0.00013141448, Final residual = 5.3348423e-08, No Iterations 2
Time = 1.075

DILUPBiCG:  Solving for T, Initial residual = 0.00013796649, Final residual = 4.0437614e-09, No Iterations 3
DILUPBiCG:  Solving for T, Initial residual = 0.00013336496, Final residual = 5.3987121e-08, No Iterations 2
Time = 1.08

DILUPBiCG:  Solving for T, Initial residual = 0.00013941113, Final residual = 1.1745833e-07, No Iterations 2
DILUPBiCG:  Solving for T, Initial residual = 0.00013528882, Final residual = 5.4653832e-08, No Iterations 2
Time = 1.085

DILUPBiCG:  Solving for T, Initial residual = 0.00014093615, Final residual = 7.2420195e-08, No Iterations 2
DILUPBiCG:  Solving for T, Initial residual = 0.0001367558, Final residual = 5.5188135e-08, No Iterations 2
Time = 1.09

DILUPBiCG:  Solving for T, Initial residual = 0.00014229463, Final residual = 6.2392337e-08, No Iterations 2
DILUPBiCG:  Solving for T, Initial residual = 0.00013810269, Final residual = 5.5648822e-08, No Iterations 2
Time = 1.095

DILUPBiCG:  Solving for T, Initial residual = 0.00014354911, Final residual = 5.9127999e-08, No Iterations 2
DILUPBiCG:  Solving for T, Initial residual = 0.00013940197, Final residual = 5.6077699e-08, No Iterations 2
Time = 1.1

DILUPBiCG:  Solving for T, Initial residual = 0.00014473078, Final residual = 5.7614188e-08, No Iterations 2
DILUPBiCG:  Solving for T, Initial residual = 0.00014056749, Final residual = 5.6446966e-08, No Iterations 2
Time = 1.105

DILUPBiCG:  Solving for T, Initial residual = 0.00014584585, Final residual = 5.6675188e-08, No Iterations 2
DILUPBiCG:  Solving for T, Initial residual = 0.00014163897, Final residual = 5.67818e-08, No Iterations 2
Time = 1.11

DILUPBiCG:  Solving for T, Initial residual = 0.00014686747, Final residual = 5.6081929e-08, No Iterations 2
DILUPBiCG:  Solving for T, Initial residual = 0.00014255733, Final residual = 5.7088891e-08, No Iterations 2
Time = 1.115

DILUPBiCG:  Solving for T, Initial residual = 0.00014778954, Final residual = 5.5761092e-08, No Iterations 2
DILUPBiCG:  Solving for T, Initial residual = 0.00014349396, Final residual = 5.7417737e-08, No Iterations 2
Time = 1.12

DILUPBiCG:  Solving for T, Initial residual = 0.00014881174, Final residual = 5.5522165e-08, No Iterations 2
DILUPBiCG:  Solving for T, Initial residual = 0.00014454072, Final residual = 5.7781188e-08, No Iterations 2
Time = 1.125

DILUPBiCG:  Solving for T, Initial residual = 0.00014984493, Final residual = 5.5392893e-08, No Iterations 2
DILUPBiCG:  Solving for T, Initial residual = 0.00014541695, Final residual = 5.8058242e-08, No Iterations 2
Time = 1.13

DILUPBiCG:  Solving for T, Initial residual = 0.00015075537, Final residual = 5.5401733e-08, No Iterations 2
DILUPBiCG:  Solving for T, Initial residual = 0.00014632437, Final residual = 5.8338818e-08, No Iterations 2
Time = 1.135

DILUPBiCG:  Solving for T, Initial residual = 0.00015170049, Final residual = 5.5450614e-08, No Iterations 2
DILUPBiCG:  Solving for T, Initial residual = 0.00014714052, Final residual = 5.8615653e-08, No Iterations 2
Time = 1.14

DILUPBiCG:  Solving for T, Initial residual = 0.00015250792, Final residual = 5.5531999e-08, No Iterations 2
DILUPBiCG:  Solving for T, Initial residual = 0.00014781107, Final residual = 5.8819673e-08, No Iterations 2
Time = 1.145

DILUPBiCG:  Solving for T, Initial residual = 0.00015321616, Final residual = 5.5633067e-08, No Iterations 2
DILUPBiCG:  Solving for T, Initial residual = 0.00014855632, Final residual = 5.901858e-08, No Iterations 2
Time = 1.15

DILUPBiCG:  Solving for T, Initial residual = 0.00015404167, Final residual = 5.5891296e-08, No Iterations 2
DILUPBiCG:  Solving for T, Initial residual = 0.00014937252, Final residual = 5.92332e-08, No Iterations 2
Time = 1.155

DILUPBiCG:  Solving for T, Initial residual = 0.00015488059, Final residual = 5.6252866e-08, No Iterations 2
DILUPBiCG:  Solving for T, Initial residual = 0.00015012229, Final residual = 5.9410556e-08, No Iterations 2
Time = 1.16

DILUPBiCG:  Solving for T, Initial residual = 0.00015563271, Final residual = 5.6679284e-08, No Iterations 2
DILUPBiCG:  Solving for T, Initial residual = 0.00015076685, Final residual = 5.9534772e-08, No Iterations 2
Time = 1.165

DILUPBiCG:  Solving for T, Initial residual = 0.00015625953, Final residual = 5.7082894e-08, No Iterations 2
DILUPBiCG:  Solving for T, Initial residual = 0.0001513127, Final residual = 5.9634467e-08, No Iterations 2
Time = 1.17

DILUPBiCG:  Solving for T, Initial residual = 0.00015684575, Final residual = 5.7455997e-08, No Iterations 2
DILUPBiCG:  Solving for T, Initial residual = 0.00015192924, Final residual = 5.9720117e-08, No Iterations 2
Time = 1.175

DILUPBiCG:  Solving for T, Initial residual = 0.0001575184, Final residual = 5.7894606e-08, No Iterations 2
DILUPBiCG:  Solving for T, Initial residual = 0.00015280118, Final residual = 5.980988e-08, No Iterations 2
Time = 1.18

DILUPBiCG:  Solving for T, Initial residual = 0.00015848688, Final residual = 5.8362551e-08, No Iterations 2
DILUPBiCG:  Solving for T, Initial residual = 0.00015373313, Final residual = 5.9910185e-08, No Iterations 2
Time = 1.185

DILUPBiCG:  Solving for T, Initial residual = 0.00015940106, Final residual = 5.888139e-08, No Iterations 2
DILUPBiCG:  Solving for T, Initial residual = 0.00015452738, Final residual = 6.0037334e-08, No Iterations 2
Time = 1.19

DILUPBiCG:  Solving for T, Initial residual = 0.00016018017, Final residual = 5.9481735e-08, No Iterations 2
DILUPBiCG:  Solving for T, Initial residual = 0.00015527505, Final residual = 6.0155596e-08, No Iterations 2
Time = 1.195

DILUPBiCG:  Solving for T, Initial residual = 0.00016094528, Final residual = 6.0089825e-08, No Iterations 2
DILUPBiCG:  Solving for T, Initial residual = 0.00015592193, Final residual = 6.0219809e-08, No Iterations 2
Time = 1.2

DILUPBiCG:  Solving for T, Initial residual = 0.00016150121, Final residual = 6.0577096e-08, No Iterations 2
DILUPBiCG:  Solving for T, Initial residual = 0.00015623427, Final residual = 6.0168967e-08, No Iterations 2
Time = 1.205

DILUPBiCG:  Solving for T, Initial residual = 0.00016178378, Final residual = 6.0933753e-08, No Iterations 2
DILUPBiCG:  Solving for T, Initial residual = 0.00015658047, Final residual = 6.0233375e-08, No Iterations 2
Time = 1.21

DILUPBiCG:  Solving for T, Initial residual = 0.00016218703, Final residual = 6.1369449e-08, No Iterations 2
DILUPBiCG:  Solving for T, Initial residual = 0.00015699819, Final residual = 6.0338398e-08, No Iterations 2
Time = 1.215

DILUPBiCG:  Solving for T, Initial residual = 0.00016246905, Final residual = 6.1624421e-08, No Iterations 2
DILUPBiCG:  Solving for T, Initial residual = 0.00015696335, Final residual = 6.0257923e-08, No Iterations 2
Time = 1.22

DILUPBiCG:  Solving for T, Initial residual = 0.00016244256, Final residual = 6.166208e-08, No Iterations 2
DILUPBiCG:  Solving for T, Initial residual = 0.00015678499, Final residual = 6.0233027e-08, No Iterations 2
Time = 1.225

DILUPBiCG:  Solving for T, Initial residual = 0.00016227828, Final residual = 6.1641118e-08, No Iterations 2
DILUPBiCG:  Solving for T, Initial residual = 0.0001566224, Final residual = 6.0287323e-08, No Iterations 2
Time = 1.23

DILUPBiCG:  Solving for T, Initial residual = 0.00016210728, Final residual = 6.163134e-08, No Iterations 2
DILUPBiCG:  Solving for T, Initial residual = 0.00015648136, Final residual = 6.0399958e-08, No Iterations 2
Time = 1.235

DILUPBiCG:  Solving for T, Initial residual = 0.00016200249, Final residual = 6.1624455e-08, No Iterations 2
DILUPBiCG:  Solving for T, Initial residual = 0.0001564166, Final residual = 6.0588769e-08, No Iterations 2
Time = 1.24

DILUPBiCG:  Solving for T, Initial residual = 0.00016204836, Final residual = 6.164888e-08, No Iterations 2
DILUPBiCG:  Solving for T, Initial residual = 0.00015662165, Final residual = 6.0811902e-08, No Iterations 2
Time = 1.245

DILUPBiCG:  Solving for T, Initial residual = 0.00016224405, Final residual = 6.1620236e-08, No Iterations 2
DILUPBiCG:  Solving for T, Initial residual = 0.0001567803, Final residual = 6.1037035e-08, No Iterations 2
Time = 1.25

DILUPBiCG:  Solving for T, Initial residual = 0.00016233151, Final residual = 6.1512073e-08, No Iterations 2
DILUPBiCG:  Solving for T, Initial residual = 0.00015680525, Final residual = 6.1202676e-08, No Iterations 2
Time = 1.255

DILUPBiCG:  Solving for T, Initial residual = 0.0001623433, Final residual = 6.1433005e-08, No Iterations 2
DILUPBiCG:  Solving for T, Initial residual = 0.00015680106, Final residual = 6.1308137e-08, No Iterations 2
Time = 1.26

DILUPBiCG:  Solving for T, Initial residual = 0.00016236313, Final residual = 6.1347785e-08, No Iterations 2
DILUPBiCG:  Solving for T, Initial residual = 0.00015673147, Final residual = 6.134e-08, No Iterations 2
Time = 1.265

DILUPBiCG:  Solving for T, Initial residual = 0.0001622791, Final residual = 6.1229826e-08, No Iterations 2
DILUPBiCG:  Solving for T, Initial residual = 0.00015656603, Final residual = 6.1346679e-08, No Iterations 2
Time = 1.27

DILUPBiCG:  Solving for T, Initial residual = 0.00016210513, Final residual = 6.109468e-08, No Iterations 2
DILUPBiCG:  Solving for T, Initial residual = 0.00015632793, Final residual = 6.133535e-08, No Iterations 2
Time = 1.275

DILUPBiCG:  Solving for T, Initial residual = 0.00016186994, Final residual = 6.0922286e-08, No Iterations 2
DILUPBiCG:  Solving for T, Initial residual = 0.00015616442, Final residual = 6.1305553e-08, No Iterations 2
Time = 1.28

DILUPBiCG:  Solving for T, Initial residual = 0.00016177595, Final residual = 6.0771758e-08, No Iterations 2
DILUPBiCG:  Solving for T, Initial residual = 0.00015607147, Final residual = 6.132629e-08, No Iterations 2
Time = 1.285

DILUPBiCG:  Solving for T, Initial residual = 0.00016167081, Final residual = 6.0655346e-08, No Iterations 2
DILUPBiCG:  Solving for T, Initial residual = 0.00015591681, Final residual = 6.1416637e-08, No Iterations 2
Time = 1.29

DILUPBiCG:  Solving for T, Initial residual = 0.00016150921, Final residual = 6.061629e-08, No Iterations 2
DILUPBiCG:  Solving for T, Initial residual = 0.00015571335, Final residual = 6.1541522e-08, No Iterations 2
Time = 1.295

DILUPBiCG:  Solving for T, Initial residual = 0.00016132616, Final residual = 6.055418e-08, No Iterations 2
DILUPBiCG:  Solving for T, Initial residual = 0.00015579407, Final residual = 6.1680874e-08, No Iterations 2
Time = 1.3

DILUPBiCG:  Solving for T, Initial residual = 0.00016148034, Final residual = 6.0533737e-08, No Iterations 2
DILUPBiCG:  Solving for T, Initial residual = 0.00015594193, Final residual = 6.1774642e-08, No Iterations 2
Time = 1.305

DILUPBiCG:  Solving for T, Initial residual = 0.00016159793, Final residual = 6.052943e-08, No Iterations 2
DILUPBiCG:  Solving for T, Initial residual = 0.00015597527, Final residual = 6.1743598e-08, No Iterations 2
Time = 1.31

DILUPBiCG:  Solving for T, Initial residual = 0.00016159681, Final residual = 6.0474481e-08, No Iterations 2
DILUPBiCG:  Solving for T, Initial residual = 0.00015595311, Final residual = 6.1730727e-08, No Iterations 2
Time = 1.315

DILUPBiCG:  Solving for T, Initial residual = 0.00016162681, Final residual = 6.0479655e-08, No Iterations 2
DILUPBiCG:  Solving for T, Initial residual = 0.00015611124, Final residual = 6.1806891e-08, No Iterations 2
Time = 1.32

DILUPBiCG:  Solving for T, Initial residual = 0.00016179463, Final residual = 6.0503299e-08, No Iterations 2
DILUPBiCG:  Solving for T, Initial residual = 0.0001563362, Final residual = 6.1895572e-08, No Iterations 2
Time = 1.325

DILUPBiCG:  Solving for T, Initial residual = 0.00016208653, Final residual = 6.054564e-08, No Iterations 2
DILUPBiCG:  Solving for T, Initial residual = 0.0001568091, Final residual = 6.2073322e-08, No Iterations 2
Time = 1.33

DILUPBiCG:  Solving for T, Initial residual = 0.0001626097, Final residual = 6.0650803e-08, No Iterations 2
DILUPBiCG:  Solving for T, Initial residual = 0.00015733502, Final residual = 6.2231453e-08, No Iterations 2
Time = 1.335

DILUPBiCG:  Solving for T, Initial residual = 0.0001631453, Final residual = 6.0841109e-08, No Iterations 2
DILUPBiCG:  Solving for T, Initial residual = 0.0001578401, Final residual = 6.2451622e-08, No Iterations 2
Time = 1.34

DILUPBiCG:  Solving for T, Initial residual = 0.00016354957, Final residual = 6.1033184e-08, No Iterations 2
DILUPBiCG:  Solving for T, Initial residual = 0.00015809289, Final residual = 6.2552009e-08, No Iterations 2
Time = 1.345

DILUPBiCG:  Solving for T, Initial residual = 0.00016370602, Final residual = 6.1068264e-08, No Iterations 2
DILUPBiCG:  Solving for T, Initial residual = 0.00015807088, Final residual = 6.2466788e-08, No Iterations 2
Time = 1.35

DILUPBiCG:  Solving for T, Initial residual = 0.0001636347, Final residual = 6.101756e-08, No Iterations 2
DILUPBiCG:  Solving for T, Initial residual = 0.0001581547, Final residual = 6.2506302e-08, No Iterations 2
Time = 1.355

DILUPBiCG:  Solving for T, Initial residual = 0.0001638141, Final residual = 6.1104035e-08, No Iterations 2
DILUPBiCG:  Solving for T, Initial residual = 0.00015841857, Final residual = 6.2609006e-08, No Iterations 2
Time = 1.36

DILUPBiCG:  Solving for T, Initial residual = 0.00016399707, Final residual = 6.1214384e-08, No Iterations 2
DILUPBiCG:  Solving for T, Initial residual = 0.00015837998, Final residual = 6.2626962e-08, No Iterations 2
Time = 1.365

DILUPBiCG:  Solving for T, Initial residual = 0.00016390992, Final residual = 6.1218839e-08, No Iterations 2
DILUPBiCG:  Solving for T, Initial residual = 0.00015813472, Final residual = 6.2559889e-08, No Iterations 2
Time = 1.37

DILUPBiCG:  Solving for T, Initial residual = 0.00016369862, Final residual = 6.1161863e-08, No Iterations 2
DILUPBiCG:  Solving for T, Initial residual = 0.00015797442, Final residual = 6.2483878e-08, No Iterations 2
Time = 1.375

DILUPBiCG:  Solving for T, Initial residual = 0.00016352956, Final residual = 6.1156695e-08, No Iterations 2
DILUPBiCG:  Solving for T, Initial residual = 0.00015784947, Final residual = 6.253586e-08, No Iterations 2
Time = 1.38

DILUPBiCG:  Solving for T, Initial residual = 0.00016339466, Final residual = 6.1190828e-08, No Iterations 2
DILUPBiCG:  Solving for T, Initial residual = 0.00015765958, Final residual = 6.255274e-08, No Iterations 2
Time = 1.385

DILUPBiCG:  Solving for T, Initial residual = 0.00016317952, Final residual = 6.1212504e-08, No Iterations 2
DILUPBiCG:  Solving for T, Initial residual = 0.00015769815, Final residual = 6.2596362e-08, No Iterations 2
Time = 1.39

DILUPBiCG:  Solving for T, Initial residual = 0.00016335135, Final residual = 6.1278501e-08, No Iterations 2
DILUPBiCG:  Solving for T, Initial residual = 0.00015782246, Final residual = 6.2653502e-08, No Iterations 2
Time = 1.395

DILUPBiCG:  Solving for T, Initial residual = 0.00016341864, Final residual = 6.129744e-08, No Iterations 2
DILUPBiCG:  Solving for T, Initial residual = 0.00015780403, Final residual = 6.2636493e-08, No Iterations 2
Time = 1.4

DILUPBiCG:  Solving for T, Initial residual = 0.00016336537, Final residual = 6.1297377e-08, No Iterations 2
DILUPBiCG:  Solving for T, Initial residual = 0.000157783, Final residual = 6.2600299e-08, No Iterations 2
Time = 1.405

DILUPBiCG:  Solving for T, Initial residual = 0.00016337033, Final residual = 6.1295678e-08, No Iterations 2
DILUPBiCG:  Solving for T, Initial residual = 0.00015774368, Final residual = 6.2552134e-08, No Iterations 2
Time = 1.41

DILUPBiCG:  Solving for T, Initial residual = 0.00016330021, Final residual = 6.1251163e-08, No Iterations 2
DILUPBiCG:  Solving for T, Initial residual = 0.00015757014, Final residual = 6.2452299e-08, No Iterations 2
Time = 1.415

DILUPBiCG:  Solving for T, Initial residual = 0.00016313176, Final residual = 6.1178625e-08, No Iterations 2
DILUPBiCG:  Solving for T, Initial residual = 0.00015733533, Final residual = 6.2330689e-08, No Iterations 2
Time = 1.42

DILUPBiCG:  Solving for T, Initial residual = 0.00016288355, Final residual = 6.1067715e-08, No Iterations 2
DILUPBiCG:  Solving for T, Initial residual = 0.00015705812, Final residual = 6.2175311e-08, No Iterations 2
Time = 1.425

DILUPBiCG:  Solving for T, Initial residual = 0.00016263385, Final residual = 6.0949753e-08, No Iterations 2
DILUPBiCG:  Solving for T, Initial residual = 0.00015682764, Final residual = 6.2042247e-08, No Iterations 2
Time = 1.43

DILUPBiCG:  Solving for T, Initial residual = 0.00016238635, Final residual = 6.0827614e-08, No Iterations 2
DILUPBiCG:  Solving for T, Initial residual = 0.00015651682, Final residual = 6.1867471e-08, No Iterations 2
Time = 1.435

DILUPBiCG:  Solving for T, Initial residual = 0.00016205984, Final residual = 6.0686302e-08, No Iterations 2
DILUPBiCG:  Solving for T, Initial residual = 0.00015616624, Final residual = 6.1717802e-08, No Iterations 2
Time = 1.44

DILUPBiCG:  Solving for T, Initial residual = 0.00016174386, Final residual = 6.0630931e-08, No Iterations 2
DILUPBiCG:  Solving for T, Initial residual = 0.00015596578, Final residual = 6.1661318e-08, No Iterations 2
Time = 1.445

DILUPBiCG:  Solving for T, Initial residual = 0.00016166308, Final residual = 6.0625358e-08, No Iterations 2
DILUPBiCG:  Solving for T, Initial residual = 0.00015607717, Final residual = 6.1681294e-08, No Iterations 2
Time = 1.45

DILUPBiCG:  Solving for T, Initial residual = 0.00016174901, Final residual = 6.0659686e-08, No Iterations 2
DILUPBiCG:  Solving for T, Initial residual = 0.00015611297, Final residual = 6.1650122e-08, No Iterations 2
Time = 1.455

DILUPBiCG:  Solving for T, Initial residual = 0.00016177399, Final residual = 6.0662349e-08, No Iterations 2
DILUPBiCG:  Solving for T, Initial residual = 0.00015611165, Final residual = 6.1556541e-08, No Iterations 2
Time = 1.46

DILUPBiCG:  Solving for T, Initial residual = 0.00016176202, Final residual = 6.0649443e-08, No Iterations 2
DILUPBiCG:  Solving for T, Initial residual = 0.00015608025, Final residual = 6.1449803e-08, No Iterations 2
Time = 1.465

DILUPBiCG:  Solving for T, Initial residual = 0.00016169343, Final residual = 6.0651578e-08, No Iterations 2
DILUPBiCG:  Solving for T, Initial residual = 0.00015596404, Final residual = 6.1344672e-08, No Iterations 2
Time = 1.47

DILUPBiCG:  Solving for T, Initial residual = 0.00016156759, Final residual = 6.0645716e-08, No Iterations 2
DILUPBiCG:  Solving for T, Initial residual = 0.00015587415, Final residual = 6.1223892e-08, No Iterations 2
Time = 1.475

DILUPBiCG:  Solving for T, Initial residual = 0.00016153319, Final residual = 6.0714519e-08, No Iterations 2
DILUPBiCG:  Solving for T, Initial residual = 0.00015609325, Final residual = 6.1174435e-08, No Iterations 2
Time = 1.48

DILUPBiCG:  Solving for T, Initial residual = 0.00016185214, Final residual = 6.0862148e-08, No Iterations 2
DILUPBiCG:  Solving for T, Initial residual = 0.00015646392, Final residual = 6.1138165e-08, No Iterations 2
Time = 1.485

DILUPBiCG:  Solving for T, Initial residual = 0.00016224278, Final residual = 6.1072655e-08, No Iterations 2
DILUPBiCG:  Solving for T, Initial residual = 0.00015690671, Final residual = 6.10859e-08, No Iterations 2
Time = 1.49

DILUPBiCG:  Solving for T, Initial residual = 0.00016266471, Final residual = 6.1313699e-08, No Iterations 2
DILUPBiCG:  Solving for T, Initial residual = 0.00015730563, Final residual = 6.1021686e-08, No Iterations 2
Time = 1.495

DILUPBiCG:  Solving for T, Initial residual = 0.00016303559, Final residual = 6.1563919e-08, No Iterations 2
DILUPBiCG:  Solving for T, Initial residual = 0.00015761876, Final residual = 6.0981433e-08, No Iterations 2
Time = 1.5

DILUPBiCG:  Solving for T, Initial residual = 0.00016333713, Final residual = 6.1920119e-08, No Iterations 2
DILUPBiCG:  Solving for T, Initial residual = 0.00015806505, Final residual = 6.0968593e-08, No Iterations 2
Time = 1.505

DILUPBiCG:  Solving for T, Initial residual = 0.00016375657, Final residual = 6.2208406e-08, No Iterations 2
DILUPBiCG:  Solving for T, Initial residual = 0.00015830912, Final residual = 6.0889502e-08, No Iterations 2
Time = 1.51

DILUPBiCG:  Solving for T, Initial residual = 0.00016394916, Final residual = 6.2419824e-08, No Iterations 2
DILUPBiCG:  Solving for T, Initial residual = 0.00015834872, Final residual = 6.0837045e-08, No Iterations 2
Time = 1.515

DILUPBiCG:  Solving for T, Initial residual = 0.00016398584, Final residual = 6.2572235e-08, No Iterations 2
DILUPBiCG:  Solving for T, Initial residual = 0.00015860824, Final residual = 6.0879379e-08, No Iterations 2
Time = 1.52

DILUPBiCG:  Solving for T, Initial residual = 0.00016420874, Final residual = 6.2715672e-08, No Iterations 2
DILUPBiCG:  Solving for T, Initial residual = 0.00015868602, Final residual = 6.0833102e-08, No Iterations 2
Time = 1.525

DILUPBiCG:  Solving for T, Initial residual = 0.00016424752, Final residual = 6.2743281e-08, No Iterations 2
DILUPBiCG:  Solving for T, Initial residual = 0.00015852817, Final residual = 6.0824026e-08, No Iterations 2
Time = 1.53

DILUPBiCG:  Solving for T, Initial residual = 0.00016405179, Final residual = 6.2637853e-08, No Iterations 2
DILUPBiCG:  Solving for T, Initial residual = 0.0001583105, Final residual = 6.0825293e-08, No Iterations 2
Time = 1.535

DILUPBiCG:  Solving for T, Initial residual = 0.00016384298, Final residual = 6.2532218e-08, No Iterations 2
DILUPBiCG:  Solving for T, Initial residual = 0.00015806439, Final residual = 6.0841905e-08, No Iterations 2
Time = 1.54

DILUPBiCG:  Solving for T, Initial residual = 0.00016361569, Final residual = 6.2425392e-08, No Iterations 2
DILUPBiCG:  Solving for T, Initial residual = 0.00015785716, Final residual = 6.09257e-08, No Iterations 2
Time = 1.545

DILUPBiCG:  Solving for T, Initial residual = 0.00016335258, Final residual = 6.2277594e-08, No Iterations 2
DILUPBiCG:  Solving for T, Initial residual = 0.0001576192, Final residual = 6.1048756e-08, No Iterations 2
Time = 1.55

DILUPBiCG:  Solving for T, Initial residual = 0.00016327649, Final residual = 6.2195379e-08, No Iterations 2
DILUPBiCG:  Solving for T, Initial residual = 0.00015775832, Final residual = 6.1262662e-08, No Iterations 2
Time = 1.555

DILUPBiCG:  Solving for T, Initial residual = 0.00016340014, Final residual = 6.2113669e-08, No Iterations 2
DILUPBiCG:  Solving for T, Initial residual = 0.00015784739, Final residual = 6.1480632e-08, No Iterations 2
Time = 1.56

DILUPBiCG:  Solving for T, Initial residual = 0.00016338849, Final residual = 6.1955598e-08, No Iterations 2
DILUPBiCG:  Solving for T, Initial residual = 0.00015777352, Final residual = 6.1603771e-08, No Iterations 2
Time = 1.565

DILUPBiCG:  Solving for T, Initial residual = 0.00016335594, Final residual = 6.1838639e-08, No Iterations 2
DILUPBiCG:  Solving for T, Initial residual = 0.00015769697, Final residual = 6.166912e-08, No Iterations 2
Time = 1.57

DILUPBiCG:  Solving for T, Initial residual = 0.00016326506, Final residual = 6.1700051e-08, No Iterations 2
DILUPBiCG:  Solving for T, Initial residual = 0.00015752902, Final residual = 6.1673296e-08, No Iterations 2
Time = 1.575

DILUPBiCG:  Solving for T, Initial residual = 0.00016310079, Final residual = 6.1565316e-08, No Iterations 2
DILUPBiCG:  Solving for T, Initial residual = 0.00015734363, Final residual = 6.1688416e-08, No Iterations 2
Time = 1.58

DILUPBiCG:  Solving for T, Initial residual = 0.00016289575, Final residual = 6.1416936e-08, No Iterations 2
DILUPBiCG:  Solving for T, Initial residual = 0.00015706731, Final residual = 6.1662278e-08, No Iterations 2
Time = 1.585

DILUPBiCG:  Solving for T, Initial residual = 0.0001626275, Final residual = 6.1229568e-08, No Iterations 2
DILUPBiCG:  Solving for T, Initial residual = 0.00015680486, Final residual = 6.1629207e-08, No Iterations 2
Time = 1.59

DILUPBiCG:  Solving for T, Initial residual = 0.00016236574, Final residual = 6.103123e-08, No Iterations 2
DILUPBiCG:  Solving for T, Initial residual = 0.00015649133, Final residual = 6.1577838e-08, No Iterations 2
Time = 1.595

DILUPBiCG:  Solving for T, Initial residual = 0.00016206488, Final residual = 6.0801128e-08, No Iterations 2
DILUPBiCG:  Solving for T, Initial residual = 0.00015623299, Final residual = 6.1565605e-08, No Iterations 2
Time = 1.6

DILUPBiCG:  Solving for T, Initial residual = 0.00016181612, Final residual = 6.0708981e-08, No Iterations 2
DILUPBiCG:  Solving for T, Initial residual = 0.00015597713, Final residual = 6.1668572e-08, No Iterations 2
Time = 1.605

DILUPBiCG:  Solving for T, Initial residual = 0.00016166552, Final residual = 6.063967e-08, No Iterations 2
DILUPBiCG:  Solving for T, Initial residual = 0.00015610871, Final residual = 6.1816772e-08, No Iterations 2
Time = 1.61

DILUPBiCG:  Solving for T, Initial residual = 0.00016179509, Final residual = 6.0631482e-08, No Iterations 2
DILUPBiCG:  Solving for T, Initial residual = 0.00015618811, Final residual = 6.1895472e-08, No Iterations 2
Time = 1.615

DILUPBiCG:  Solving for T, Initial residual = 0.00016184938, Final residual = 6.0608913e-08, No Iterations 2
DILUPBiCG:  Solving for T, Initial residual = 0.00015617512, Final residual = 6.1842525e-08, No Iterations 2
Time = 1.62

DILUPBiCG:  Solving for T, Initial residual = 0.00016181379, Final residual = 6.0541627e-08, No Iterations 2
DILUPBiCG:  Solving for T, Initial residual = 0.00015613926, Final residual = 6.178885e-08, No Iterations 2
Time = 1.625

DILUPBiCG:  Solving for T, Initial residual = 0.00016175172, Final residual = 6.0467417e-08, No Iterations 2
DILUPBiCG:  Solving for T, Initial residual = 0.0001560352, Final residual = 6.1797983e-08, No Iterations 2
Time = 1.63

DILUPBiCG:  Solving for T, Initial residual = 0.00016163455, Final residual = 6.0425112e-08, No Iterations 2
DILUPBiCG:  Solving for T, Initial residual = 0.00015597888, Final residual = 6.1816632e-08, No Iterations 2
Time = 1.635

DILUPBiCG:  Solving for T, Initial residual = 0.00016170961, Final residual = 6.0411979e-08, No Iterations 2
DILUPBiCG:  Solving for T, Initial residual = 0.00015628553, Final residual = 6.1959721e-08, No Iterations 2
Time = 1.64

DILUPBiCG:  Solving for T, Initial residual = 0.00016205697, Final residual = 6.0503396e-08, No Iterations 2
DILUPBiCG:  Solving for T, Initial residual = 0.00015673379, Final residual = 6.2065204e-08, No Iterations 2
Time = 1.645

DILUPBiCG:  Solving for T, Initial residual = 0.0001625274, Final residual = 6.0620927e-08, No Iterations 2
DILUPBiCG:  Solving for T, Initial residual = 0.00015721833, Final residual = 6.2207965e-08, No Iterations 2
Time = 1.65

DILUPBiCG:  Solving for T, Initial residual = 0.00016298708, Final residual = 6.0738269e-08, No Iterations 2
DILUPBiCG:  Solving for T, Initial residual = 0.00015764106, Final residual = 6.2366968e-08, No Iterations 2
Time = 1.655

DILUPBiCG:  Solving for T, Initial residual = 0.00016337247, Final residual = 6.0891196e-08, No Iterations 2
DILUPBiCG:  Solving for T, Initial residual = 0.00015793969, Final residual = 6.2519502e-08, No Iterations 2
Time = 1.66

DILUPBiCG:  Solving for T, Initial residual = 0.00016356142, Final residual = 6.0995946e-08, No Iterations 2
DILUPBiCG:  Solving for T, Initial residual = 0.00015813248, Final residual = 6.2550886e-08, No Iterations 2
Time = 1.665

DILUPBiCG:  Solving for T, Initial residual = 0.00016381229, Final residual = 6.1037826e-08, No Iterations 2
DILUPBiCG:  Solving for T, Initial residual = 0.0001583116, Final residual = 6.2585873e-08, No Iterations 2
Time = 1.67

DILUPBiCG:  Solving for T, Initial residual = 0.00016395512, Final residual = 6.116029e-08, No Iterations 2
DILUPBiCG:  Solving for T, Initial residual = 0.00015853804, Final residual = 6.2752552e-08, No Iterations 2
Time = 1.675

DILUPBiCG:  Solving for T, Initial residual = 0.0001641223, Final residual = 6.1267076e-08, No Iterations 2
DILUPBiCG:  Solving for T, Initial residual = 0.00015859296, Final residual = 6.2749999e-08, No Iterations 2
Time = 1.68

DILUPBiCG:  Solving for T, Initial residual = 0.00016417343, Final residual = 6.1283921e-08, No Iterations 2
DILUPBiCG:  Solving for T, Initial residual = 0.00015855791, Final residual = 6.2694305e-08, No Iterations 2
Time = 1.685

DILUPBiCG:  Solving for T, Initial residual = 0.00016412348, Final residual = 6.1320491e-08, No Iterations 2
DILUPBiCG:  Solving for T, Initial residual = 0.00015837238, Final residual = 6.2662754e-08, No Iterations 2
Time = 1.69

DILUPBiCG:  Solving for T, Initial residual = 0.00016388808, Final residual = 6.1299288e-08, No Iterations 2
DILUPBiCG:  Solving for T, Initial residual = 0.00015810463, Final residual = 6.2587793e-08, No Iterations 2
Time = 1.695

DILUPBiCG:  Solving for T, Initial residual = 0.00016364261, Final residual = 6.1250724e-08, No Iterations 2
DILUPBiCG:  Solving for T, Initial residual = 0.00015796737, Final residual = 6.2573082e-08, No Iterations 2
Time = 1.7

DILUPBiCG:  Solving for T, Initial residual = 0.00016349489, Final residual = 6.1241922e-08, No Iterations 2
DILUPBiCG:  Solving for T, Initial residual = 0.00015769301, Final residual = 6.2562734e-08, No Iterations 2
Time = 1.705

DILUPBiCG:  Solving for T, Initial residual = 0.00016331097, Final residual = 6.1254522e-08, No Iterations 2
DILUPBiCG:  Solving for T, Initial residual = 0.00015772944, Final residual = 6.257303e-08, No Iterations 2
Time = 1.71

DILUPBiCG:  Solving for T, Initial residual = 0.00016336591, Final residual = 6.1270862e-08, No Iterations 2
[...]
DILUPBiCG:  Solving for T, Initial residual = 0.00015766282, Final residual = 6.2476662e-08, No Iterations 2
Time = 4.575

DILUPBiCG:  Solving for T, Initial residual = 0.00016322716, Final residual = 6.1205537e-08, No Iterations 2
DILUPBiCG:  Solving for T, Initial residual = 0.00015746527, Final residual = 6.2365222e-08, No Iterations 2
Time = 4.58

DILUPBiCG:  Solving for T, Initial residual = 0.00016302792, Final residual = 6.1128807e-08, No Iterations 2
DILUPBiCG:  Solving for T, Initial residual = 0.00015724793, Final residual = 6.2255169e-08, No Iterations 2
Time = 4.585

DILUPBiCG:  Solving for T, Initial residual = 0.0001627965, Final residual = 6.1028342e-08, No Iterations 2
DILUPBiCG:  Solving for T, Initial residual = 0.00015698027, Final residual = 6.2105266e-08, No Iterations 2
Time = 4.59

DILUPBiCG:  Solving for T, Initial residual = 0.00016255281, Final residual = 6.0907409e-08, No Iterations 2
DILUPBiCG:  Solving for T, Initial residual = 0.00015671211, Final residual = 6.1954051e-08, No Iterations 2
Time = 4.595

DILUPBiCG:  Solving for T, Initial residual = 0.00016226462, Final residual = 6.0765653e-08, No Iterations 2
DILUPBiCG:  Solving for T, Initial residual = 0.00015637658, Final residual = 6.1762821e-08, No Iterations 2
Time = 4.6

DILUPBiCG:  Solving for T, Initial residual = 0.00016195788, Final residual = 6.06382e-08, No Iterations 2
DILUPBiCG:  Solving for T, Initial residual = 0.00015610675, Final residual = 6.166956e-08, No Iterations 2
Time = 4.605

DILUPBiCG:  Solving for T, Initial residual = 0.00016169157, Final residual = 6.0630656e-08, No Iterations 2
DILUPBiCG:  Solving for T, Initial residual = 0.00015600157, Final residual = 6.1645922e-08, No Iterations 2
Time = 4.61

DILUPBiCG:  Solving for T, Initial residual = 0.00016170659, Final residual = 6.0651535e-08, No Iterations 2
DILUPBiCG:  Solving for T, Initial residual = 0.00015613845, Final residual = 6.1671769e-08, No Iterations 2
Time = 4.615

DILUPBiCG:  Solving for T, Initial residual = 0.00016181449, Final residual = 6.0696225e-08, No Iterations 2
DILUPBiCG:  Solving for T, Initial residual = 0.00015617534, Final residual = 6.1617711e-08, No Iterations 2
Time = 4.62

DILUPBiCG:  Solving for T, Initial residual = 0.00016182225, Final residual = 6.0698327e-08, No Iterations 2
DILUPBiCG:  Solving for T, Initial residual = 0.0001561431, Final residual = 6.1500974e-08, No Iterations 2
Time = 4.625

DILUPBiCG:  Solving for T, Initial residual = 0.00016178033, Final residual = 6.0680051e-08, No Iterations 2
DILUPBiCG:  Solving for T, Initial residual = 0.00015609207, Final residual = 6.13868e-08, No Iterations 2
Time = 4.63

DILUPBiCG:  Solving for T, Initial residual = 0.00016169101, Final residual = 6.0682722e-08, No Iterations 2
DILUPBiCG:  Solving for T, Initial residual = 0.00015594916, Final residual = 6.1263494e-08, No Iterations 2
Time = 4.635

DILUPBiCG:  Solving for T, Initial residual = 0.00016155573, Final residual = 6.0716603e-08, No Iterations 2
DILUPBiCG:  Solving for T, Initial residual = 0.00015602125, Final residual = 6.1168298e-08, No Iterations 2
Time = 4.64

DILUPBiCG:  Solving for T, Initial residual = 0.00016175358, Final residual = 6.0823048e-08, No Iterations 2
DILUPBiCG:  Solving for T, Initial residual = 0.00015634262, Final residual = 6.1133386e-08, No Iterations 2
Time = 4.645

DILUPBiCG:  Solving for T, Initial residual = 0.0001621295, Final residual = 6.1034871e-08, No Iterations 2
DILUPBiCG:  Solving for T, Initial residual = 0.00015680664, Final residual = 6.1082256e-08, No Iterations 2
Time = 4.65

DILUPBiCG:  Solving for T, Initial residual = 0.0001625856, Final residual = 6.1278759e-08, No Iterations 2
DILUPBiCG:  Solving for T, Initial residual = 0.00015725738, Final residual = 6.1029077e-08, No Iterations 2
Time = 4.655

DILUPBiCG:  Solving for T, Initial residual = 0.00016302139, Final residual = 6.1555289e-08, No Iterations 2
DILUPBiCG:  Solving for T, Initial residual = 0.00015766472, Final residual = 6.1006388e-08, No Iterations 2
Time = 4.66

DILUPBiCG:  Solving for T, Initial residual = 0.00016338319, Final residual = 6.1884924e-08, No Iterations 2
DILUPBiCG:  Solving for T, Initial residual = 0.00015792317, Final residual = 6.0971637e-08, No Iterations 2
Time = 4.665

DILUPBiCG:  Solving for T, Initial residual = 0.00016359145, Final residual = 6.2161062e-08, No Iterations 2
DILUPBiCG:  Solving for T, Initial residual = 0.00015818228, Final residual = 6.0828141e-08, No Iterations 2
Time = 4.67

DILUPBiCG:  Solving for T, Initial residual = 0.00016385855, Final residual = 6.2354204e-08, No Iterations 2
DILUPBiCG:  Solving for T, Initial residual = 0.00015833634, Final residual = 6.0813316e-08, No Iterations 2
Time = 4.675

DILUPBiCG:  Solving for T, Initial residual = 0.00016397424, Final residual = 6.2547638e-08, No Iterations 2
DILUPBiCG:  Solving for T, Initial residual = 0.00015854555, Final residual = 6.0856483e-08, No Iterations 2
Time = 4.68

DILUPBiCG:  Solving for T, Initial residual = 0.00016411338, Final residual = 6.2693057e-08, No Iterations 2
DILUPBiCG:  Solving for T, Initial residual = 0.00015860718, Final residual = 6.079211e-08, No Iterations 2
Time = 4.685

DILUPBiCG:  Solving for T, Initial residual = 0.00016418866, Final residual = 6.2716037e-08, No Iterations 2
DILUPBiCG:  Solving for T, Initial residual = 0.00015854796, Final residual = 6.0785189e-08, No Iterations 2
Time = 4.69

DILUPBiCG:  Solving for T, Initial residual = 0.00016409717, Final residual = 6.2661478e-08, No Iterations 2
DILUPBiCG:  Solving for T, Initial residual = 0.00015830728, Final residual = 6.080861e-08, No Iterations 2
Time = 4.695

DILUPBiCG:  Solving for T, Initial residual = 0.00016382956, Final residual = 6.2534218e-08, No Iterations 2
DILUPBiCG:  Solving for T, Initial residual = 0.00015807263, Final residual = 6.0828973e-08, No Iterations 2
Time = 4.7

DILUPBiCG:  Solving for T, Initial residual = 0.00016362408, Final residual = 6.2441525e-08, No Iterations 2
DILUPBiCG:  Solving for T, Initial residual = 0.000157939, Final residual = 6.0923174e-08, No Iterations 2
Time = 4.705

DILUPBiCG:  Solving for T, Initial residual = 0.00016344605, Final residual = 6.2341225e-08, No Iterations 2
DILUPBiCG:  Solving for T, Initial residual = 0.00015765809, Final residual = 6.1031595e-08, No Iterations 2
Time = 4.71

DILUPBiCG:  Solving for T, Initial residual = 0.00016329807, Final residual = 6.2228383e-08, No Iterations 2
DILUPBiCG:  Solving for T, Initial residual = 0.00015771841, Final residual = 6.1211994e-08, No Iterations 2
Time = 4.715

DILUPBiCG:  Solving for T, Initial residual = 0.00016337276, Final residual = 6.2132644e-08, No Iterations 2
DILUPBiCG:  Solving for T, Initial residual = 0.0001578396, Final residual = 6.144032e-08, No Iterations 2
Time = 4.72

DILUPBiCG:  Solving for T, Initial residual = 0.00016340216, Final residual = 6.1993706e-08, No Iterations 2
DILUPBiCG:  Solving for T, Initial residual = 0.00015779864, Final residual = 6.1582935e-08, No Iterations 2
Time = 4.725

DILUPBiCG:  Solving for T, Initial residual = 0.00016337559, Final residual = 6.1877483e-08, No Iterations 2
DILUPBiCG:  Solving for T, Initial residual = 0.00015774749, Final residual = 6.1677412e-08, No Iterations 2
Time = 4.73

DILUPBiCG:  Solving for T, Initial residual = 0.00016331787, Final residual = 6.1749074e-08, No Iterations 2
DILUPBiCG:  Solving for T, Initial residual = 0.0001576018, Final residual = 6.1687675e-08, No Iterations 2
Time = 4.735

DILUPBiCG:  Solving for T, Initial residual = 0.00016316482, Final residual = 6.1605207e-08, No Iterations 2
DILUPBiCG:  Solving for T, Initial residual = 0.00015739048, Final residual = 6.1689718e-08, No Iterations 2
Time = 4.74

DILUPBiCG:  Solving for T, Initial residual = 0.00016296029, Final residual = 6.1463898e-08, No Iterations 2
DILUPBiCG:  Solving for T, Initial residual = 0.00015716414, Final residual = 6.1688846e-08, No Iterations 2
Time = 4.745

DILUPBiCG:  Solving for T, Initial residual = 0.00016270406, Final residual = 6.1287376e-08, No Iterations 2
DILUPBiCG:  Solving for T, Initial residual = 0.0001568844, Final residual = 6.1647683e-08, No Iterations 2
Time = 4.75

DILUPBiCG:  Solving for T, Initial residual = 0.00016245369, Final residual = 6.1094312e-08, No Iterations 2
DILUPBiCG:  Solving for T, Initial residual = 0.00015659241, Final residual = 6.1611328e-08, No Iterations 2
Time = 4.755

DILUPBiCG:  Solving for T, Initial residual = 0.00016214773, Final residual = 6.0870295e-08, No Iterations 2
DILUPBiCG:  Solving for T, Initial residual = 0.00015629437, Final residual = 6.155584e-08, No Iterations 2
Time = 4.76

DILUPBiCG:  Solving for T, Initial residual = 0.00016187419, Final residual = 6.0723852e-08, No Iterations 2
DILUPBiCG:  Solving for T, Initial residual = 0.00015601392, Final residual = 6.1644345e-08, No Iterations 2
Time = 4.765

DILUPBiCG:  Solving for T, Initial residual = 0.00016162189, Final residual = 6.0649071e-08, No Iterations 2
DILUPBiCG:  Solving for T, Initial residual = 0.00015606358, Final residual = 6.1779488e-08, No Iterations 2
Time = 4.77

DILUPBiCG:  Solving for T, Initial residual = 0.00016175758, Final residual = 6.0625947e-08, No Iterations 2
DILUPBiCG:  Solving for T, Initial residual = 0.0001561718, Final residual = 6.1902976e-08, No Iterations 2
Time = 4.775

DILUPBiCG:  Solving for T, Initial residual = 0.00016183984, Final residual = 6.0616505e-08, No Iterations 2
DILUPBiCG:  Solving for T, Initial residual = 0.00015617645, Final residual = 6.1856134e-08, No Iterations 2
Time = 4.78

DILUPBiCG:  Solving for T, Initial residual = 0.00016181594, Final residual = 6.0558351e-08, No Iterations 2
DILUPBiCG:  Solving for T, Initial residual = 0.00015614274, Final residual = 6.1797751e-08, No Iterations 2
Time = 4.785

DILUPBiCG:  Solving for T, Initial residual = 0.00016176735, Final residual = 6.0482872e-08, No Iterations 2
DILUPBiCG:  Solving for T, Initial residual = 0.00015605896, Final residual = 6.1801481e-08, No Iterations 2
Time = 4.79

DILUPBiCG:  Solving for T, Initial residual = 0.0001616605, Final residual = 6.0424206e-08, No Iterations 2
DILUPBiCG:  Solving for T, Initial residual = 0.00015591951, Final residual = 6.1802883e-08, No Iterations 2
Time = 4.795

DILUPBiCG:  Solving for T, Initial residual = 0.0001615871, Final residual = 6.0397168e-08, No Iterations 2
DILUPBiCG:  Solving for T, Initial residual = 0.00015615173, Final residual = 6.1902492e-08, No Iterations 2
Time = 4.8

DILUPBiCG:  Solving for T, Initial residual = 0.00016189154, Final residual = 6.0451203e-08, No Iterations 2
DILUPBiCG:  Solving for T, Initial residual = 0.00015652739, Final residual = 6.2016296e-08, No Iterations 2
Time = 4.805

DILUPBiCG:  Solving for T, Initial residual = 0.00016232191, Final residual = 6.0566481e-08, No Iterations 2
DILUPBiCG:  Solving for T, Initial residual = 0.00015700683, Final residual = 6.2149672e-08, No Iterations 2
Time = 4.81

DILUPBiCG:  Solving for T, Initial residual = 0.00016277805, Final residual = 6.0683656e-08, No Iterations 2
DILUPBiCG:  Solving for T, Initial residual = 0.00015744395, Final residual = 6.2278462e-08, No Iterations 2
Time = 4.815

DILUPBiCG:  Solving for T, Initial residual = 0.00016319076, Final residual = 6.0820781e-08, No Iterations 2
DILUPBiCG:  Solving for T, Initial residual = 0.00015780049, Final residual = 6.2448083e-08, No Iterations 2
Time = 4.82

DILUPBiCG:  Solving for T, Initial residual = 0.00016348095, Final residual = 6.0953422e-08, No Iterations 2
DILUPBiCG:  Solving for T, Initial residual = 0.00015804419, Final residual = 6.2564584e-08, No Iterations 2
Time = 4.825

DILUPBiCG:  Solving for T, Initial residual = 0.00016373026, Final residual = 6.1025893e-08, No Iterations 2
DILUPBiCG:  Solving for T, Initial residual = 0.0001582732, Final residual = 6.2579708e-08, No Iterations 2
Time = 4.83

DILUPBiCG:  Solving for T, Initial residual = 0.00016393349, Final residual = 6.1122641e-08, No Iterations 2
DILUPBiCG:  Solving for T, Initial residual = 0.00015841179, Final residual = 6.2671207e-08, No Iterations 2
Time = 4.835

DILUPBiCG:  Solving for T, Initial residual = 0.00016406368, Final residual = 6.1225302e-08, No Iterations 2
DILUPBiCG:  Solving for T, Initial residual = 0.00015861631, Final residual = 6.2793354e-08, No Iterations 2
Time = 4.84

DILUPBiCG:  Solving for T, Initial residual = 0.00016416965, Final residual = 6.1282152e-08, No Iterations 2
DILUPBiCG:  Solving for T, Initial residual = 0.0001586031, Final residual = 6.2705576e-08, No Iterations 2
Time = 4.845

DILUPBiCG:  Solving for T, Initial residual = 0.00016418019, Final residual = 6.1313736e-08, No Iterations 2
DILUPBiCG:  Solving for T, Initial residual = 0.00015848048, Final residual = 6.2678383e-08, No Iterations 2
Time = 4.85

DILUPBiCG:  Solving for T, Initial residual = 0.00016401044, Final residual = 6.1315672e-08, No Iterations 2
DILUPBiCG:  Solving for T, Initial residual = 0.0001582118, Final residual = 6.2617003e-08, No Iterations 2
Time = 4.855

DILUPBiCG:  Solving for T, Initial residual = 0.00016374184, Final residual = 6.126132e-08, No Iterations 2
DILUPBiCG:  Solving for T, Initial residual = 0.00015803629, Final residual = 6.2562755e-08, No Iterations 2
Time = 4.86

DILUPBiCG:  Solving for T, Initial residual = 0.00016359618, Final residual = 6.1254243e-08, No Iterations 2
DILUPBiCG:  Solving for T, Initial residual = 0.00015785695, Final residual = 6.2554814e-08, No Iterations 2
Time = 4.865

DILUPBiCG:  Solving for T, Initial residual = 0.00016334344, Final residual = 6.1234156e-08, No Iterations 2
DILUPBiCG:  Solving for T, Initial residual = 0.00015766358, Final residual = 6.2533687e-08, No Iterations 2
Time = 4.87

DILUPBiCG:  Solving for T, Initial residual = 0.00016330668, Final residual = 6.1250991e-08, No Iterations 2
DILUPBiCG:  Solving for T, Initial residual = 0.00015773563, Final residual = 6.2571746e-08, No Iterations 2
Time = 4.875

DILUPBiCG:  Solving for T, Initial residual = 0.00016337732, Final residual = 6.1277799e-08, No Iterations 2
DILUPBiCG:  Solving for T, Initial residual = 0.00015783091, Final residual = 6.2624448e-08, No Iterations 2
Time = 4.88

DILUPBiCG:  Solving for T, Initial residual = 0.00016337425, Final residual = 6.129425e-08, No Iterations 2
DILUPBiCG:  Solving for T, Initial residual = 0.00015778945, Final residual = 6.2577819e-08, No Iterations 2
Time = 4.885

DILUPBiCG:  Solving for T, Initial residual = 0.00016336612, Final residual = 6.1282148e-08, No Iterations 2
DILUPBiCG:  Solving for T, Initial residual = 0.00015769904, Final residual = 6.2499893e-08, No Iterations 2
Time = 4.89

DILUPBiCG:  Solving for T, Initial residual = 0.00016326517, Final residual = 6.1221912e-08, No Iterations 2
DILUPBiCG:  Solving for T, Initial residual = 0.00015752016, Final residual = 6.2389759e-08, No Iterations 2
Time = 4.895

DILUPBiCG:  Solving for T, Initial residual = 0.00016308025, Final residual = 6.1150573e-08, No Iterations 2
DILUPBiCG:  Solving for T, Initial residual = 0.00015730665, Final residual = 6.2281346e-08, No Iterations 2
Time = 4.9

DILUPBiCG:  Solving for T, Initial residual = 0.00016286223, Final residual = 6.1058468e-08, No Iterations 2
DILUPBiCG:  Solving for T, Initial residual = 0.00015703965, Final residual = 6.2141408e-08, No Iterations 2
Time = 4.905

DILUPBiCG:  Solving for T, Initial residual = 0.0001626151, Final residual = 6.0940583e-08, No Iterations 2
DILUPBiCG:  Solving for T, Initial residual = 0.0001567905, Final residual = 6.1992796e-08, No Iterations 2
Time = 4.91

DILUPBiCG:  Solving for T, Initial residual = 0.00016234633, Final residual = 6.0807411e-08, No Iterations 2
DILUPBiCG:  Solving for T, Initial residual = 0.00015646622, Final residual = 6.1810658e-08, No Iterations 2
Time = 4.915

DILUPBiCG:  Solving for T, Initial residual = 0.00016203723, Final residual = 6.0656689e-08, No Iterations 2
DILUPBiCG:  Solving for T, Initial residual = 0.00015619778, Final residual = 6.1674364e-08, No Iterations 2
Time = 4.92

DILUPBiCG:  Solving for T, Initial residual = 0.00016177829, Final residual = 6.063551e-08, No Iterations 2
DILUPBiCG:  Solving for T, Initial residual = 0.00015595338, Final residual = 6.1638291e-08, No Iterations 2
Time = 4.925

DILUPBiCG:  Solving for T, Initial residual = 0.00016166339, Final residual = 6.0635543e-08, No Iterations 2
DILUPBiCG:  Solving for T, Initial residual = 0.00015610619, Final residual = 6.1661563e-08, No Iterations 2
Time = 4.93

DILUPBiCG:  Solving for T, Initial residual = 0.0001617904, Final residual = 6.0691754e-08, No Iterations 2
DILUPBiCG:  Solving for T, Initial residual = 0.00015617525, Final residual = 6.1633208e-08, No Iterations 2
Time = 4.935

DILUPBiCG:  Solving for T, Initial residual = 0.0001618317, Final residual = 6.0707244e-08, No Iterations 2
DILUPBiCG:  Solving for T, Initial residual = 0.00015615526, Final residual = 6.1528919e-08, No Iterations 2
Time = 4.94

DILUPBiCG:  Solving for T, Initial residual = 0.00016179427, Final residual = 6.0694113e-08, No Iterations 2
DILUPBiCG:  Solving for T, Initial residual = 0.00015611694, Final residual = 6.1393095e-08, No Iterations 2
Time = 4.945

DILUPBiCG:  Solving for T, Initial residual = 0.0001617273, Final residual = 6.0685503e-08, No Iterations 2
DILUPBiCG:  Solving for T, Initial residual = 0.00015599788, Final residual = 6.1289129e-08, No Iterations 2
Time = 4.95

DILUPBiCG:  Solving for T, Initial residual = 0.00016159853, Final residual = 6.0715696e-08, No Iterations 2
DILUPBiCG:  Solving for T, Initial residual = 0.00015596515, Final residual = 6.1177705e-08, No Iterations 2
Time = 4.955

DILUPBiCG:  Solving for T, Initial residual = 0.00016169789, Final residual = 6.0802307e-08, No Iterations 2
DILUPBiCG:  Solving for T, Initial residual = 0.00015627733, Final residual = 6.1129773e-08, No Iterations 2
Time = 4.96

DILUPBiCG:  Solving for T, Initial residual = 0.00016205105, Final residual = 6.0996197e-08, No Iterations 2
DILUPBiCG:  Solving for T, Initial residual = 0.00015672712, Final residual = 6.1081265e-08, No Iterations 2
Time = 4.965

DILUPBiCG:  Solving for T, Initial residual = 0.00016251718, Final residual = 6.1244763e-08, No Iterations 2
DILUPBiCG:  Solving for T, Initial residual = 0.00015719989, Final residual = 6.1030298e-08, No Iterations 2
Time = 4.97

DILUPBiCG:  Solving for T, Initial residual = 0.00016296811, Final residual = 6.1519329e-08, No Iterations 2
DILUPBiCG:  Solving for T, Initial residual = 0.00015762011, Final residual = 6.1005908e-08, No Iterations 2
Time = 4.975

DILUPBiCG:  Solving for T, Initial residual = 0.00016334977, Final residual = 6.1847605e-08, No Iterations 2
DILUPBiCG:  Solving for T, Initial residual = 0.00015791224, Final residual = 6.0969176e-08, No Iterations 2
Time = 4.98

DILUPBiCG:  Solving for T, Initial residual = 0.00016353903, Final residual = 6.2130921e-08, No Iterations 2
DILUPBiCG:  Solving for T, Initial residual = 0.000158132, Final residual = 6.0827882e-08, No Iterations 2
Time = 4.985

DILUPBiCG:  Solving for T, Initial residual = 0.00016381119, Final residual = 6.2320263e-08, No Iterations 2
DILUPBiCG:  Solving for T, Initial residual = 0.00015830791, Final residual = 6.0798045e-08, No Iterations 2
Time = 4.99

DILUPBiCG:  Solving for T, Initial residual = 0.00016394887, Final residual = 6.2521925e-08, No Iterations 2
DILUPBiCG:  Solving for T, Initial residual = 0.00015852585, Final residual = 6.0847585e-08, No Iterations 2
Time = 4.995

DILUPBiCG:  Solving for T, Initial residual = 0.00016411022, Final residual = 6.2687116e-08, No Iterations 2
DILUPBiCG:  Solving for T, Initial residual = 0.00015859658, Final residual = 6.0801021e-08, No Iterations 2
Time = 5

DILUPBiCG:  Solving for T, Initial residual = 0.00016417777, Final residual = 6.2714355e-08, No Iterations 2
DILUPBiCG:  Solving for T, Initial residual = 0.00015855929, Final residual = 6.076712e-08, No Iterations 2
End

